# generated using pymatgen
data_ZrGeO4
_symmetry_space_group_name_H-M   'P 1'
_cell_length_a   4.92633623
_cell_length_b   4.92611381
_cell_length_c   6.39748399
_cell_angle_alpha   112.64482711
_cell_angle_beta   112.64129810
_cell_angle_gamma   89.99881078
_symmetry_Int_Tables_number   1
_chemical_formula_structural   ZrGeO4
_chemical_formula_sum   'Zr2 Ge2 O8'
_cell_volume   130.22437122
_cell_formula_units_Z   2
loop_
 _symmetry_equiv_pos_site_id
 _symmetry_equiv_pos_as_xyz
  1  'x, y, z'
loop_
 _atom_site_type_symbol
 _atom_site_label
 _atom_site_symmetry_multiplicity
 _atom_site_fract_x
 _atom_site_fract_y
 _atom_site_fract_z
 _atom_site_occupancy
  Zr  Zr1  1  0.625016  0.874980  0.250024  1.0
  Zr  Zr2  1  0.374984  0.125020  0.749976  1.0
  Ge  Ge3  1  0.124975  0.374905  0.249945  1.0
  Ge  Ge4  1  0.875025  0.625095  0.750055  1.0
  O  O5  1  0.310006  0.466112  0.086726  1.0
  O  O6  1  0.620650  0.810068  0.586752  1.0
  O  O7  1  0.966108  0.276778  0.586738  1.0
  O  O8  1  0.776706  0.120556  0.086704  1.0
  O  O9  1  0.223294  0.879444  0.913296  1.0
  O  O10  1  0.033892  0.723222  0.413262  1.0
  O  O11  1  0.379350  0.189932  0.413248  1.0
  O  O12  1  0.689994  0.533888  0.913274  1.0
