# generated using pymatgen
data_KRuF6
_symmetry_space_group_name_H-M   'P 1'
_cell_length_a   5.12405013
_cell_length_b   5.12405013
_cell_length_c   5.12405012
_cell_angle_alpha   97.87424423
_cell_angle_beta   97.87424424
_cell_angle_gamma   97.87424418
_symmetry_Int_Tables_number   1
_chemical_formula_structural   KRuF6
_chemical_formula_sum   'K1 Ru1 F6'
_cell_volume   130.33739620
_cell_formula_units_Z   1
loop_
 _symmetry_equiv_pos_site_id
 _symmetry_equiv_pos_as_xyz
  1  'x, y, z'
loop_
 _atom_site_type_symbol
 _atom_site_label
 _atom_site_symmetry_multiplicity
 _atom_site_fract_x
 _atom_site_fract_y
 _atom_site_fract_z
 _atom_site_occupancy
  K  K1  1  0.500000  0.500000  0.500000  1.0
  Ru  Ru2  1  0.000000  0.000000  0.000000  1.0
  F  F3  1  0.263148  0.263148  0.919918  1.0
  F  F4  1  0.263148  0.919918  0.263148  1.0
  F  F5  1  0.736852  0.080082  0.736852  1.0
  F  F6  1  0.736852  0.736852  0.080082  1.0
  F  F7  1  0.080082  0.736852  0.736852  1.0
  F  F8  1  0.919918  0.263148  0.263148  1.0
