# generated using pymatgen
data_Er(NiP)2
_symmetry_space_group_name_H-M   'P 1'
_cell_length_a   3.85370370
_cell_length_b   3.85370370
_cell_length_c   5.40931099
_cell_angle_alpha   110.86763419
_cell_angle_beta   110.86763421
_cell_angle_gamma   89.99999993
_symmetry_Int_Tables_number   1
_chemical_formula_structural   Er(NiP)2
_chemical_formula_sum   'Er1 Ni2 P2'
_cell_volume   69.39601358
_cell_formula_units_Z   1
loop_
 _symmetry_equiv_pos_site_id
 _symmetry_equiv_pos_as_xyz
  1  'x, y, z'
loop_
 _atom_site_type_symbol
 _atom_site_label
 _atom_site_symmetry_multiplicity
 _atom_site_fract_x
 _atom_site_fract_y
 _atom_site_fract_z
 _atom_site_occupancy
  Er  Er1  1  0.000000  0.000000  0.000000  1.0
  Ni  Ni2  1  0.750000  0.250000  0.500000  1.0
  Ni  Ni3  1  0.250000  0.750000  0.500000  1.0
  P  P4  1  0.622047  0.622047  0.244095  1.0
  P  P5  1  0.377953  0.377953  0.755905  1.0
