# generated using pymatgen
data_Na2Cl
_symmetry_space_group_name_H-M   'P 1'
_cell_length_a   3.93477504
_cell_length_b   3.93477504
_cell_length_c   7.10220449
_cell_angle_alpha   73.91811545
_cell_angle_beta   73.91811545
_cell_angle_gamma   59.99998516
_symmetry_Int_Tables_number   1
_chemical_formula_structural   Na2Cl
_chemical_formula_sum   'Na2 Cl1'
_cell_volume   90.22480240
_cell_formula_units_Z   1
loop_
 _symmetry_equiv_pos_site_id
 _symmetry_equiv_pos_as_xyz
  1  'x, y, z'
loop_
 _atom_site_type_symbol
 _atom_site_label
 _atom_site_symmetry_multiplicity
 _atom_site_fract_x
 _atom_site_fract_y
 _atom_site_fract_z
 _atom_site_occupancy
  Na  Na1  1  0.751073  0.751073  0.746779  1.0
  Na  Na2  1  0.248927  0.248927  0.253221  1.0
  Cl  Cl3  1  0.000000  0.000000  0.000000  1.0
