# generated using pymatgen
data_GeRu
_symmetry_space_group_name_H-M   'P 1'
_cell_length_a   4.89678300
_cell_length_b   4.89678300
_cell_length_c   4.89678300
_cell_angle_alpha   90.00000000
_cell_angle_beta   90.00000000
_cell_angle_gamma   90.00000000
_symmetry_Int_Tables_number   1
_chemical_formula_structural   GeRu
_chemical_formula_sum   'Ge4 Ru4'
_cell_volume   117.41743159
_cell_formula_units_Z   4
loop_
 _symmetry_equiv_pos_site_id
 _symmetry_equiv_pos_as_xyz
  1  'x, y, z'
loop_
 _atom_site_type_symbol
 _atom_site_label
 _atom_site_symmetry_multiplicity
 _atom_site_fract_x
 _atom_site_fract_y
 _atom_site_fract_z
 _atom_site_occupancy
  Ge  Ge1  1  0.086219  0.086219  0.086219  1.0
  Ge  Ge2  1  0.413781  0.913781  0.586219  1.0
  Ge  Ge3  1  0.913781  0.586219  0.413781  1.0
  Ge  Ge4  1  0.586219  0.413781  0.913781  1.0
  Ru  Ru5  1  0.377865  0.377865  0.377865  1.0
  Ru  Ru6  1  0.122135  0.622135  0.877865  1.0
  Ru  Ru7  1  0.622135  0.877865  0.122135  1.0
  Ru  Ru8  1  0.877865  0.122135  0.622135  1.0
