# generated using pymatgen
data_SrWO4
_symmetry_space_group_name_H-M   'P 1'
_cell_length_a   5.54032625
_cell_length_b   5.54032625
_cell_length_c   7.18522749
_cell_angle_alpha   112.67700960
_cell_angle_beta   112.67700960
_cell_angle_gamma   90.00000000
_symmetry_Int_Tables_number   1
_chemical_formula_structural   SrWO4
_chemical_formula_sum   'Sr2 W2 O8'
_cell_volume   184.88584772
_cell_formula_units_Z   2
loop_
 _symmetry_equiv_pos_site_id
 _symmetry_equiv_pos_as_xyz
  1  'x, y, z'
loop_
 _atom_site_type_symbol
 _atom_site_label
 _atom_site_symmetry_multiplicity
 _atom_site_fract_x
 _atom_site_fract_y
 _atom_site_fract_z
 _atom_site_occupancy
  Sr  Sr1  1  0.625000  0.875000  0.250000  1.0
  Sr  Sr2  1  0.375000  0.125000  0.750000  1.0
  W  W3  1  0.125000  0.375000  0.250000  1.0
  W  W4  1  0.875000  0.625000  0.750000  1.0
  O  O5  1  0.346864  0.696159  0.416974  1.0
  O  O6  1  0.070110  0.220815  0.416974  1.0
  O  O7  1  0.196159  0.570110  0.916974  1.0
  O  O8  1  0.720815  0.846864  0.916974  1.0
  O  O9  1  0.653136  0.303841  0.583026  1.0
  O  O10  1  0.929890  0.779185  0.583026  1.0
  O  O11  1  0.803841  0.429890  0.083026  1.0
  O  O12  1  0.279185  0.153136  0.083026  1.0
