# generated using pymatgen
data_LiCuF2
_symmetry_space_group_name_H-M   'P 1'
_cell_length_a   2.95382345
_cell_length_b   2.95382411
_cell_length_c   6.78827987
_cell_angle_alpha   64.20606659
_cell_angle_beta   64.20606598
_cell_angle_gamma   60.00000733
_symmetry_Int_Tables_number   1
_chemical_formula_structural   LiCuF2
_chemical_formula_sum   'Li1 Cu1 F2'
_cell_volume   44.34835347
_cell_formula_units_Z   1
loop_
 _symmetry_equiv_pos_site_id
 _symmetry_equiv_pos_as_xyz
  1  'x, y, z'
loop_
 _atom_site_type_symbol
 _atom_site_label
 _atom_site_symmetry_multiplicity
 _atom_site_fract_x
 _atom_site_fract_y
 _atom_site_fract_z
 _atom_site_occupancy
  Li  Li1  1  0.000000  0.000000  0.500000  1.0
  Cu  Cu2  1  0.000000  0.000000  0.000000  1.0
  F  F3  1  0.790042  0.790042  0.314939  1.0
  F  F4  1  0.209958  0.209958  0.685061  1.0
