# generated using pymatgen
data_BaAlSi
_symmetry_space_group_name_H-M   'P 1'
_cell_length_a   4.32163600
_cell_length_b   4.32163638
_cell_length_c   5.18904200
_cell_angle_alpha   90.00000000
_cell_angle_beta   90.00000000
_cell_angle_gamma   119.99999710
_symmetry_Int_Tables_number   1
_chemical_formula_structural   BaAlSi
_chemical_formula_sum   'Ba1 Al1 Si1'
_cell_volume   83.92942305
_cell_formula_units_Z   1
loop_
 _symmetry_equiv_pos_site_id
 _symmetry_equiv_pos_as_xyz
  1  'x, y, z'
loop_
 _atom_site_type_symbol
 _atom_site_label
 _atom_site_symmetry_multiplicity
 _atom_site_fract_x
 _atom_site_fract_y
 _atom_site_fract_z
 _atom_site_occupancy
  Ba  Ba1  1  0.000000  0.000000  0.000000  1.0
  Al  Al2  1  0.666667  0.333333  0.500000  1.0
  Si  Si3  1  0.333333  0.666667  0.500000  1.0
