# generated using pymatgen
data_Li2Mg
_symmetry_space_group_name_H-M   'P 1'
_cell_length_a   3.09343402
_cell_length_b   3.09343184
_cell_length_c   15.03508590
_cell_angle_alpha   90.00000000
_cell_angle_beta   90.00000000
_cell_angle_gamma   120.00002330
_symmetry_Int_Tables_number   1
_chemical_formula_structural   Li2Mg
_chemical_formula_sum   'Li4 Mg2'
_cell_volume   124.59994543
_cell_formula_units_Z   2
loop_
 _symmetry_equiv_pos_site_id
 _symmetry_equiv_pos_as_xyz
  1  'x, y, z'
loop_
 _atom_site_type_symbol
 _atom_site_label
 _atom_site_symmetry_multiplicity
 _atom_site_fract_x
 _atom_site_fract_y
 _atom_site_fract_z
 _atom_site_occupancy
  Li  Li1  1  0.000000  0.000000  0.998541  1.0
  Li  Li2  1  0.000000  0.000000  0.334792  1.0
  Li  Li3  1  0.666668  0.333334  0.498541  1.0
  Li  Li4  1  0.666668  0.333334  0.834792  1.0
  Mg  Mg5  1  0.666668  0.333334  0.166667  1.0
  Mg  Mg6  1  0.000000  0.000000  0.666667  1.0
