# generated using pymatgen
data_CoPdO2
_symmetry_space_group_name_H-M   'P 1'
_cell_length_a   6.18288108
_cell_length_b   6.18288121
_cell_length_c   6.18288121
_cell_angle_alpha   26.77751816
_cell_angle_beta   26.77751583
_cell_angle_gamma   26.77751340
_symmetry_Int_Tables_number   1
_chemical_formula_structural   CoPdO2
_chemical_formula_sum   'Co1 Pd1 O2'
_cell_volume   42.30309971
_cell_formula_units_Z   1
loop_
 _symmetry_equiv_pos_site_id
 _symmetry_equiv_pos_as_xyz
  1  'x, y, z'
loop_
 _atom_site_type_symbol
 _atom_site_label
 _atom_site_symmetry_multiplicity
 _atom_site_fract_x
 _atom_site_fract_y
 _atom_site_fract_z
 _atom_site_occupancy
  Co  Co1  1  0.500000  0.500000  0.500000  1.0
  Pd  Pd2  1  0.000001  0.000001  0.000001  1.0
  O  O3  1  0.887524  0.887524  0.887524  1.0
  O  O4  1  0.112474  0.112474  0.112474  1.0
