# generated using pymatgen
data_CaSi2
_symmetry_space_group_name_H-M   'P 1'
_cell_length_a   3.88801959
_cell_length_b   3.88767009
_cell_length_c   4.94595985
_cell_angle_alpha   90.00000005
_cell_angle_beta   89.99771262
_cell_angle_gamma   119.99701754
_symmetry_Int_Tables_number   1
_chemical_formula_structural   CaSi2
_chemical_formula_sum   'Ca1 Si2'
_cell_volume   64.74587683
_cell_formula_units_Z   1
loop_
 _symmetry_equiv_pos_site_id
 _symmetry_equiv_pos_as_xyz
  1  'x, y, z'
loop_
 _atom_site_type_symbol
 _atom_site_label
 _atom_site_symmetry_multiplicity
 _atom_site_fract_x
 _atom_site_fract_y
 _atom_site_fract_z
 _atom_site_occupancy
  Ca  Ca1  1  0.000000  0.000000  0.000000  1.0
  Si  Si2  1  0.333290  0.666645  0.413333  1.0
  Si  Si3  1  0.666710  0.333355  0.586667  1.0
