# generated using pymatgen
data_Si
_symmetry_space_group_name_H-M   'P 1'
_cell_length_a   5.76396167
_cell_length_b   5.76396167
_cell_length_c   5.76396167
_cell_angle_alpha   109.47122065
_cell_angle_beta   109.47122066
_cell_angle_gamma   109.47122060
_symmetry_Int_Tables_number   1
_chemical_formula_structural   Si
_chemical_formula_sum   Si8
_cell_volume   147.41489301
_cell_formula_units_Z   8
loop_
 _symmetry_equiv_pos_site_id
 _symmetry_equiv_pos_as_xyz
  1  'x, y, z'
loop_
 _atom_site_type_symbol
 _atom_site_label
 _atom_site_symmetry_multiplicity
 _atom_site_fract_x
 _atom_site_fract_y
 _atom_site_fract_z
 _atom_site_occupancy
  Si  Si1  1  0.203114  0.203114  0.203114  1.0
  Si  Si2  1  0.000000  0.296886  0.500000  1.0
  Si  Si3  1  0.500000  0.000000  0.296886  1.0
  Si  Si4  1  0.296886  0.500000  0.000000  1.0
  Si  Si5  1  0.796886  0.796886  0.796886  1.0
  Si  Si6  1  0.000000  0.703114  0.500000  1.0
  Si  Si7  1  0.500000  0.000000  0.703114  1.0
  Si  Si8  1  0.703114  0.500000  0.000000  1.0
