# generated using pymatgen
data_Er(VGa2)2
_symmetry_space_group_name_H-M   'P 1'
_cell_length_a   5.23301330
_cell_length_b   5.35137362
_cell_length_c   5.35137343
_cell_angle_alpha   76.16872333
_cell_angle_beta   60.72898656
_cell_angle_gamma   60.72898371
_symmetry_Int_Tables_number   1
_chemical_formula_structural   Er(VGa2)2
_chemical_formula_sum   'Er1 V2 Ga4'
_cell_volume   114.03305939
_cell_formula_units_Z   1
loop_
 _symmetry_equiv_pos_site_id
 _symmetry_equiv_pos_as_xyz
  1  'x, y, z'
loop_
 _atom_site_type_symbol
 _atom_site_label
 _atom_site_symmetry_multiplicity
 _atom_site_fract_x
 _atom_site_fract_y
 _atom_site_fract_z
 _atom_site_occupancy
  Er  Er1  1  0.000000  0.000000  0.000000  1.0
  V  V2  1  0.750000  0.500000  0.500000  1.0
  V  V3  1  0.250000  0.500000  0.500000  1.0
  Ga  Ga4  1  0.302591  0.000000  0.394818  1.0
  Ga  Ga5  1  0.697409  0.605182  0.000000  1.0
  Ga  Ga6  1  0.302591  0.394818  0.000000  1.0
  Ga  Ga7  1  0.697409  0.000000  0.605182  1.0
