# generated using pymatgen
data_Mg3Bi
_symmetry_space_group_name_H-M   'P 1'
_cell_length_a   3.28772597
_cell_length_b   10.65683521
_cell_length_c   5.74394618
_cell_angle_alpha   90.00000000
_cell_angle_beta   90.00000000
_cell_angle_gamma   90.00000000
_symmetry_Int_Tables_number   1
_chemical_formula_structural   Mg3Bi
_chemical_formula_sum   'Mg6 Bi2'
_cell_volume   201.24922860
_cell_formula_units_Z   2
loop_
 _symmetry_equiv_pos_site_id
 _symmetry_equiv_pos_as_xyz
  1  'x, y, z'
loop_
 _atom_site_type_symbol
 _atom_site_label
 _atom_site_symmetry_multiplicity
 _atom_site_fract_x
 _atom_site_fract_y
 _atom_site_fract_z
 _atom_site_occupancy
  Mg  Mg1  1  0.000000  0.500000  0.666657  1.0
  Mg  Mg2  1  0.500000  0.747963  0.499062  1.0
  Mg  Mg3  1  0.000000  0.752037  0.999062  1.0
  Mg  Mg4  1  0.500000  0.000000  0.166657  1.0
  Mg  Mg5  1  0.000000  0.247963  0.999062  1.0
  Mg  Mg6  1  0.500000  0.252037  0.499062  1.0
  Bi  Bi7  1  0.500000  0.500000  0.168554  1.0
  Bi  Bi8  1  0.000000  0.000000  0.668554  1.0
