# generated using pymatgen
data_Pm2Mg
_symmetry_space_group_name_H-M   'P 1'
_cell_length_a   3.81656316
_cell_length_b   3.81656316
_cell_length_c   6.92623096
_cell_angle_alpha   105.97963671
_cell_angle_beta   105.97963821
_cell_angle_gamma   90.04563451
_symmetry_Int_Tables_number   1
_chemical_formula_structural   Pm2Mg
_chemical_formula_sum   'Pm2 Mg1'
_cell_volume   92.92175956
_cell_formula_units_Z   1
loop_
 _symmetry_equiv_pos_site_id
 _symmetry_equiv_pos_as_xyz
  1  'x, y, z'
loop_
 _atom_site_type_symbol
 _atom_site_label
 _atom_site_symmetry_multiplicity
 _atom_site_fract_x
 _atom_site_fract_y
 _atom_site_fract_z
 _atom_site_occupancy
  Pm  Pm1  1  0.092961  0.926294  0.019256  1.0
  Pm  Pm2  1  0.407039  0.240373  0.647411  1.0
  Mg  Mg3  1  0.750000  0.583334  0.333334  1.0
