# generated using pymatgen
data_NbCrSi
_symmetry_space_group_name_H-M   'P 1'
_cell_length_a   6.65052502
_cell_length_b   6.65052519
_cell_length_c   3.32229727
_cell_angle_alpha   90.00000000
_cell_angle_beta   90.00000000
_cell_angle_gamma   119.99999916
_symmetry_Int_Tables_number   1
_chemical_formula_structural   NbCrSi
_chemical_formula_sum   'Nb3 Cr3 Si3'
_cell_volume   127.25680025
_cell_formula_units_Z   3
loop_
 _symmetry_equiv_pos_site_id
 _symmetry_equiv_pos_as_xyz
  1  'x, y, z'
loop_
 _atom_site_type_symbol
 _atom_site_label
 _atom_site_symmetry_multiplicity
 _atom_site_fract_x
 _atom_site_fract_y
 _atom_site_fract_z
 _atom_site_occupancy
  Nb  Nb1  1  0.000000  0.595396  0.500000  1.0
  Nb  Nb2  1  0.595396  0.000000  0.500000  1.0
  Nb  Nb3  1  0.404604  0.404604  0.500000  1.0
  Cr  Cr4  1  0.746388  0.746388  0.000000  1.0
  Cr  Cr5  1  0.253612  0.000000  0.000000  1.0
  Cr  Cr6  1  0.000000  0.253612  0.000000  1.0
  Si  Si7  1  0.000000  0.000000  0.500000  1.0
  Si  Si8  1  0.666667  0.333333  0.000000  1.0
  Si  Si9  1  0.333333  0.666667  0.000000  1.0
