# generated using pymatgen
data_PrN
_symmetry_space_group_name_H-M   'P 1'
_cell_length_a   3.71394565
_cell_length_b   4.45740801
_cell_length_c   4.45740801
_cell_angle_alpha   90.00000000
_cell_angle_beta   90.00000000
_cell_angle_gamma   90.00000000
_symmetry_Int_Tables_number   1
_chemical_formula_structural   PrN
_chemical_formula_sum   'Pr2 N2'
_cell_volume   73.79047777
_cell_formula_units_Z   2
loop_
 _symmetry_equiv_pos_site_id
 _symmetry_equiv_pos_as_xyz
  1  'x, y, z'
loop_
 _atom_site_type_symbol
 _atom_site_label
 _atom_site_symmetry_multiplicity
 _atom_site_fract_x
 _atom_site_fract_y
 _atom_site_fract_z
 _atom_site_occupancy
  Pr  Pr1  1  0.255000  0.000000  0.500000  1.0
  Pr  Pr2  1  0.745000  0.500000  0.000000  1.0
  N  N3  1  0.000000  0.500000  0.500000  1.0
  N  N4  1  0.000000  0.000000  0.000000  1.0
