# generated using pymatgen
data_MgAl3
_symmetry_space_group_name_H-M   'P 1'
_cell_length_a   5.81844779
_cell_length_b   5.81844872
_cell_length_c   4.88193919
_cell_angle_alpha   90.00000000
_cell_angle_beta   90.00000000
_cell_angle_gamma   120.00000100
_symmetry_Int_Tables_number   1
_chemical_formula_structural   MgAl3
_chemical_formula_sum   'Mg2 Al6'
_cell_volume   143.13219966
_cell_formula_units_Z   2
loop_
 _symmetry_equiv_pos_site_id
 _symmetry_equiv_pos_as_xyz
  1  'x, y, z'
loop_
 _atom_site_type_symbol
 _atom_site_label
 _atom_site_symmetry_multiplicity
 _atom_site_fract_x
 _atom_site_fract_y
 _atom_site_fract_z
 _atom_site_occupancy
  Mg  Mg1  1  0.666667  0.333333  0.250000  1.0
  Mg  Mg2  1  0.333333  0.666667  0.750000  1.0
  Al  Al3  1  0.161930  0.323859  0.250000  1.0
  Al  Al4  1  0.676141  0.838070  0.250000  1.0
  Al  Al5  1  0.161930  0.838070  0.250000  1.0
  Al  Al6  1  0.323859  0.161930  0.750000  1.0
  Al  Al7  1  0.838070  0.161930  0.750000  1.0
  Al  Al8  1  0.838070  0.676141  0.750000  1.0
