# generated using pymatgen
data_TbInPt4
_symmetry_space_group_name_H-M   'P 1'
_cell_length_a   5.41567109
_cell_length_b   5.41567109
_cell_length_c   5.41567109
_cell_angle_alpha   60.00000000
_cell_angle_beta   60.00000000
_cell_angle_gamma   60.00000000
_symmetry_Int_Tables_number   1
_chemical_formula_structural   TbInPt4
_chemical_formula_sum   'Tb1 In1 Pt4'
_cell_volume   112.31605570
_cell_formula_units_Z   1
loop_
 _symmetry_equiv_pos_site_id
 _symmetry_equiv_pos_as_xyz
  1  'x, y, z'
loop_
 _atom_site_type_symbol
 _atom_site_label
 _atom_site_symmetry_multiplicity
 _atom_site_fract_x
 _atom_site_fract_y
 _atom_site_fract_z
 _atom_site_occupancy
  Tb  Tb1  1  0.000000  0.000000  0.000000  1.0
  In  In2  1  0.750000  0.750000  0.750000  1.0
  Pt  Pt3  1  0.873617  0.375461  0.375461  1.0
  Pt  Pt4  1  0.375461  0.873617  0.375461  1.0
  Pt  Pt5  1  0.375461  0.375461  0.873617  1.0
  Pt  Pt6  1  0.375461  0.375461  0.375461  1.0
