# generated using pymatgen
data_VNi2
_symmetry_space_group_name_H-M   'P 1'
_cell_length_a   2.52151085
_cell_length_b   3.57551246
_cell_length_c   4.38176000
_cell_angle_alpha   114.07923327
_cell_angle_beta   106.72198885
_cell_angle_gamma   89.99999987
_symmetry_Int_Tables_number   1
_chemical_formula_structural   VNi2
_chemical_formula_sum   'V1 Ni2'
_cell_volume   34.22906791
_cell_formula_units_Z   1
loop_
 _symmetry_equiv_pos_site_id
 _symmetry_equiv_pos_as_xyz
  1  'x, y, z'
loop_
 _atom_site_type_symbol
 _atom_site_label
 _atom_site_symmetry_multiplicity
 _atom_site_fract_x
 _atom_site_fract_y
 _atom_site_fract_z
 _atom_site_occupancy
  V  V1  1  0.000000  0.000000  0.000000  1.0
  Ni  Ni2  1  0.667890  0.667890  0.335779  1.0
  Ni  Ni3  1  0.332110  0.332110  0.664221  1.0
