# generated using pymatgen
data_Al2CuO4
_symmetry_space_group_name_H-M   'P 1'
_cell_length_a   5.76712077
_cell_length_b   5.76712032
_cell_length_c   5.76712085
_cell_angle_alpha   60.00000265
_cell_angle_beta   60.00000524
_cell_angle_gamma   60.00000094
_symmetry_Int_Tables_number   1
_chemical_formula_structural   Al2CuO4
_chemical_formula_sum   'Al4 Cu2 O8'
_cell_volume   135.63199245
_cell_formula_units_Z   2
loop_
 _symmetry_equiv_pos_site_id
 _symmetry_equiv_pos_as_xyz
  1  'x, y, z'
loop_
 _atom_site_type_symbol
 _atom_site_label
 _atom_site_symmetry_multiplicity
 _atom_site_fract_x
 _atom_site_fract_y
 _atom_site_fract_z
 _atom_site_occupancy
  Al  Al1  1  0.500000  0.000000  0.500000  1.0
  Al  Al2  1  0.000000  0.500000  0.500000  1.0
  Al  Al3  1  0.500000  0.500000  0.000000  1.0
  Al  Al4  1  0.500000  0.500000  0.500000  1.0
  Cu  Cu5  1  0.125000  0.125000  0.125000  1.0
  Cu  Cu6  1  0.875000  0.875000  0.875000  1.0
  O  O7  1  0.735300  0.735300  0.735300  1.0
  O  O8  1  0.264700  0.264700  0.705898  1.0
  O  O9  1  0.264700  0.705898  0.264700  1.0
  O  O10  1  0.705898  0.264700  0.264700  1.0
  O  O11  1  0.735300  0.294102  0.735300  1.0
  O  O12  1  0.294102  0.735300  0.735300  1.0
  O  O13  1  0.264700  0.264700  0.264700  1.0
  O  O14  1  0.735300  0.735300  0.294102  1.0
