# generated using pymatgen
data_Tl(CuS)2
_symmetry_space_group_name_H-M   'P 1'
_cell_length_a   3.78011072
_cell_length_b   3.78011072
_cell_length_c   7.33668878
_cell_angle_alpha   104.92870710
_cell_angle_beta   104.92870707
_cell_angle_gamma   89.99999993
_symmetry_Int_Tables_number   1
_chemical_formula_structural   Tl(CuS)2
_chemical_formula_sum   'Tl1 Cu2 S2'
_cell_volume   97.63050889
_cell_formula_units_Z   1
loop_
 _symmetry_equiv_pos_site_id
 _symmetry_equiv_pos_as_xyz
  1  'x, y, z'
loop_
 _atom_site_type_symbol
 _atom_site_label
 _atom_site_symmetry_multiplicity
 _atom_site_fract_x
 _atom_site_fract_y
 _atom_site_fract_z
 _atom_site_occupancy
  Tl  Tl1  1  0.000000  0.000000  0.000000  1.0
  Cu  Cu2  1  0.250000  0.750000  0.500000  1.0
  Cu  Cu3  1  0.750000  0.250000  0.500000  1.0
  S  S4  1  0.647549  0.647549  0.295098  1.0
  S  S5  1  0.352451  0.352451  0.704902  1.0
