# generated using pymatgen
data_Zn3Pd
_symmetry_space_group_name_H-M   'P 1'
_cell_length_a   4.91191975
_cell_length_b   4.91191975
_cell_length_c   4.91191975
_cell_angle_alpha   134.90689720
_cell_angle_beta   134.90689720
_cell_angle_gamma   65.67489466
_symmetry_Int_Tables_number   1
_chemical_formula_structural   Zn3Pd
_chemical_formula_sum   'Zn3 Pd1'
_cell_volume   58.55769142
_cell_formula_units_Z   1
loop_
 _symmetry_equiv_pos_site_id
 _symmetry_equiv_pos_as_xyz
  1  'x, y, z'
loop_
 _atom_site_type_symbol
 _atom_site_label
 _atom_site_symmetry_multiplicity
 _atom_site_fract_x
 _atom_site_fract_y
 _atom_site_fract_z
 _atom_site_occupancy
  Zn  Zn1  1  0.749999  0.249999  0.500000  1.0
  Zn  Zn2  1  0.249999  0.749999  0.500000  1.0
  Zn  Zn3  1  0.500000  0.500000  0.000000  1.0
  Pd  Pd4  1  0.000000  0.000000  0.000000  1.0
