# generated using pymatgen
data_SmCd2
_symmetry_space_group_name_H-M   'P 1'
_cell_length_a   5.05036786
_cell_length_b   5.05036786
_cell_length_c   3.47654497
_cell_angle_alpha   90.00000000
_cell_angle_beta   90.00000000
_cell_angle_gamma   119.99999997
_symmetry_Int_Tables_number   1
_chemical_formula_structural   SmCd2
_chemical_formula_sum   'Sm1 Cd2'
_cell_volume   76.79350823
_cell_formula_units_Z   1
loop_
 _symmetry_equiv_pos_site_id
 _symmetry_equiv_pos_as_xyz
  1  'x, y, z'
loop_
 _atom_site_type_symbol
 _atom_site_label
 _atom_site_symmetry_multiplicity
 _atom_site_fract_x
 _atom_site_fract_y
 _atom_site_fract_z
 _atom_site_occupancy
  Sm  Sm1  1  0.000000  0.000000  0.000000  1.0
  Cd  Cd2  1  0.333333  0.666667  0.499397  1.0
  Cd  Cd3  1  0.666667  0.333333  0.500603  1.0
