# generated using pymatgen
data_TmAu2
_symmetry_space_group_name_H-M   'P 1'
_cell_length_a   3.71003820
_cell_length_b   3.71003821
_cell_length_c   5.21502543
_cell_angle_alpha   110.83675801
_cell_angle_beta   110.83675805
_cell_angle_gamma   90.00000000
_symmetry_Int_Tables_number   1
_chemical_formula_structural   TmAu2
_chemical_formula_sum   'Tm1 Au2'
_cell_volume   62.03798436
_cell_formula_units_Z   1
loop_
 _symmetry_equiv_pos_site_id
 _symmetry_equiv_pos_as_xyz
  1  'x, y, z'
loop_
 _atom_site_type_symbol
 _atom_site_label
 _atom_site_symmetry_multiplicity
 _atom_site_fract_x
 _atom_site_fract_y
 _atom_site_fract_z
 _atom_site_occupancy
  Tm  Tm1  1  0.000000  0.000000  0.000000  1.0
  Au  Au2  1  0.664122  0.664122  0.328243  1.0
  Au  Au3  1  0.335878  0.335878  0.671757  1.0
