# generated using pymatgen
data_RbYb3
_symmetry_space_group_name_H-M   'P 1'
_cell_length_a   5.84332601
_cell_length_b   5.84332021
_cell_length_c   5.84333067
_cell_angle_alpha   89.99999392
_cell_angle_beta   89.99990999
_cell_angle_gamma   89.99986929
_symmetry_Int_Tables_number   1
_chemical_formula_structural   RbYb3
_chemical_formula_sum   'Rb1 Yb3'
_cell_volume   199.51716562
_cell_formula_units_Z   1
loop_
 _symmetry_equiv_pos_site_id
 _symmetry_equiv_pos_as_xyz
  1  'x, y, z'
loop_
 _atom_site_type_symbol
 _atom_site_label
 _atom_site_symmetry_multiplicity
 _atom_site_fract_x
 _atom_site_fract_y
 _atom_site_fract_z
 _atom_site_occupancy
  Rb  Rb1  1  0.999999  0.000000  0.999999  1.0
  Yb  Yb2  1  0.000000  0.499999  0.499999  1.0
  Yb  Yb3  1  0.499999  0.000000  0.500000  1.0
  Yb  Yb4  1  0.499999  0.499999  0.000000  1.0
