# generated using pymatgen
data_TiBeCo2
_symmetry_space_group_name_H-M   'P 1'
_cell_length_a   3.95368354
_cell_length_b   3.95368282
_cell_length_c   3.95368354
_cell_angle_alpha   60.00013158
_cell_angle_beta   60.00013187
_cell_angle_gamma   60.00012087
_symmetry_Int_Tables_number   1
_chemical_formula_structural   TiBeCo2
_chemical_formula_sum   'Ti1 Be1 Co2'
_cell_volume   43.70105268
_cell_formula_units_Z   1
loop_
 _symmetry_equiv_pos_site_id
 _symmetry_equiv_pos_as_xyz
  1  'x, y, z'
loop_
 _atom_site_type_symbol
 _atom_site_label
 _atom_site_symmetry_multiplicity
 _atom_site_fract_x
 _atom_site_fract_y
 _atom_site_fract_z
 _atom_site_occupancy
  Ti  Ti1  1  0.750000  0.750000  0.750000  1.0
  Be  Be2  1  0.250001  0.250001  0.250001  1.0
  Co  Co3  1  0.500000  0.500000  0.500000  1.0
  Co  Co4  1  0.000001  0.000001  0.000001  1.0
