# generated using pymatgen
data_V2TcOs
_symmetry_space_group_name_H-M   'P 1'
_cell_length_a   4.27566151
_cell_length_b   4.27565603
_cell_length_c   4.27565981
_cell_angle_alpha   60.00002571
_cell_angle_beta   60.00008852
_cell_angle_gamma   60.00007812
_symmetry_Int_Tables_number   1
_chemical_formula_structural   V2TcOs
_chemical_formula_sum   'V2 Tc1 Os1'
_cell_volume   55.27068574
_cell_formula_units_Z   1
loop_
 _symmetry_equiv_pos_site_id
 _symmetry_equiv_pos_as_xyz
  1  'x, y, z'
loop_
 _atom_site_type_symbol
 _atom_site_label
 _atom_site_symmetry_multiplicity
 _atom_site_fract_x
 _atom_site_fract_y
 _atom_site_fract_z
 _atom_site_occupancy
  V  V1  1  0.500000  0.500000  0.500000  1.0
  V  V2  1  0.000000  0.999999  0.999999  1.0
  Tc  Tc3  1  0.749999  0.750001  0.750000  1.0
  Os  Os4  1  0.250000  0.250000  0.250000  1.0
