# generated using pymatgen
data_AlCuPd2
_symmetry_space_group_name_H-M   'P 1'
_cell_length_a   4.28520572
_cell_length_b   4.28520988
_cell_length_c   4.28521066
_cell_angle_alpha   59.99990065
_cell_angle_beta   60.00001332
_cell_angle_gamma   60.00000022
_symmetry_Int_Tables_number   1
_chemical_formula_structural   AlCuPd2
_chemical_formula_sum   'Al1 Cu1 Pd2'
_cell_volume   55.64173591
_cell_formula_units_Z   1
loop_
 _symmetry_equiv_pos_site_id
 _symmetry_equiv_pos_as_xyz
  1  'x, y, z'
loop_
 _atom_site_type_symbol
 _atom_site_label
 _atom_site_symmetry_multiplicity
 _atom_site_fract_x
 _atom_site_fract_y
 _atom_site_fract_z
 _atom_site_occupancy
  Al  Al1  1  0.250001  0.250000  0.249996  1.0
  Cu  Cu2  1  0.750003  0.750008  0.750022  1.0
  Pd  Pd3  1  0.000000  0.999998  0.999988  1.0
  Pd  Pd4  1  0.499995  0.499992  0.499993  1.0
