# generated using pymatgen
data_Na(WO3)2
_symmetry_space_group_name_H-M   'P 1'
_cell_length_a   7.81708856
_cell_length_b   5.52794263
_cell_length_c   5.52816010
_cell_angle_alpha   60.00691196
_cell_angle_beta   45.01691923
_cell_angle_gamma   45.00634156
_symmetry_Int_Tables_number   1
_chemical_formula_structural   Na(WO3)2
_chemical_formula_sum   'Na1 W2 O6'
_cell_volume   119.49106663
_cell_formula_units_Z   1
loop_
 _symmetry_equiv_pos_site_id
 _symmetry_equiv_pos_as_xyz
  1  'x, y, z'
loop_
 _atom_site_type_symbol
 _atom_site_label
 _atom_site_symmetry_multiplicity
 _atom_site_fract_x
 _atom_site_fract_y
 _atom_site_fract_z
 _atom_site_occupancy
  Na  Na1  1  0.507793  0.993172  0.991203  1.0
  W  W2  1  0.254665  0.497881  0.497369  1.0
  W  W3  1  0.754634  0.497922  0.497372  1.0
  O  O4  1  0.006800  0.493950  0.997571  1.0
  O  O5  1  0.503677  0.503276  0.997602  1.0
  O  O6  1  0.006525  0.998114  0.499472  1.0
  O  O7  1  0.506196  0.490770  0.501619  1.0
  O  O8  1  0.503265  0.998091  0.491272  1.0
  O  O9  1  0.000314  0.505306  0.498836  1.0
