# generated using pymatgen
data_MgRhF6
_symmetry_space_group_name_H-M   'P 1'
_cell_length_a   5.45388936
_cell_length_b   5.45388936
_cell_length_c   5.45388936
_cell_angle_alpha   56.53296751
_cell_angle_beta   56.53296757
_cell_angle_gamma   56.53296752
_symmetry_Int_Tables_number   1
_chemical_formula_structural   MgRhF6
_chemical_formula_sum   'Mg1 Rh1 F6'
_cell_volume   105.51974834
_cell_formula_units_Z   1
loop_
 _symmetry_equiv_pos_site_id
 _symmetry_equiv_pos_as_xyz
  1  'x, y, z'
loop_
 _atom_site_type_symbol
 _atom_site_label
 _atom_site_symmetry_multiplicity
 _atom_site_fract_x
 _atom_site_fract_y
 _atom_site_fract_z
 _atom_site_occupancy
  Mg  Mg1  1  0.500000  0.500000  0.500000  1.0
  Rh  Rh2  1  0.000000  0.000000  0.000000  1.0
  F  F3  1  0.367399  0.123110  0.757053  1.0
  F  F4  1  0.123110  0.757053  0.367399  1.0
  F  F5  1  0.242947  0.632601  0.876890  1.0
  F  F6  1  0.876890  0.242947  0.632601  1.0
  F  F7  1  0.632601  0.876890  0.242947  1.0
  F  F8  1  0.757053  0.367399  0.123110  1.0
