# generated using pymatgen
data_ScNi4Sn
_symmetry_space_group_name_H-M   'P 1'
_cell_length_a   4.87857369
_cell_length_b   4.87857370
_cell_length_c   4.87857370
_cell_angle_alpha   59.99999997
_cell_angle_beta   59.99999995
_cell_angle_gamma   59.99999995
_symmetry_Int_Tables_number   1
_chemical_formula_structural   ScNi4Sn
_chemical_formula_sum   'Sc1 Ni4 Sn1'
_cell_volume   82.10386683
_cell_formula_units_Z   1
loop_
 _symmetry_equiv_pos_site_id
 _symmetry_equiv_pos_as_xyz
  1  'x, y, z'
loop_
 _atom_site_type_symbol
 _atom_site_label
 _atom_site_symmetry_multiplicity
 _atom_site_fract_x
 _atom_site_fract_y
 _atom_site_fract_z
 _atom_site_occupancy
  Sc  Sc1  1  0.000000  0.000000  0.000000  1.0
  Ni  Ni2  1  0.625056  0.625056  0.625056  1.0
  Ni  Ni3  1  0.625056  0.625056  0.124831  1.0
  Ni  Ni4  1  0.124831  0.625056  0.625056  1.0
  Ni  Ni5  1  0.625056  0.124831  0.625056  1.0
  Sn  Sn6  1  0.250000  0.250000  0.250000  1.0
