# generated using pymatgen
data_NiB
_symmetry_space_group_name_H-M   'P 1'
_cell_length_a   2.94983554
_cell_length_b   2.97183148
_cell_length_c   3.95944992
_cell_angle_alpha   90.00000000
_cell_angle_beta   111.87023529
_cell_angle_gamma   90.00000000
_symmetry_Int_Tables_number   1
_chemical_formula_structural   NiB
_chemical_formula_sum   'Ni2 B2'
_cell_volume   32.21208248
_cell_formula_units_Z   2
loop_
 _symmetry_equiv_pos_site_id
 _symmetry_equiv_pos_as_xyz
  1  'x, y, z'
loop_
 _atom_site_type_symbol
 _atom_site_label
 _atom_site_symmetry_multiplicity
 _atom_site_fract_x
 _atom_site_fract_y
 _atom_site_fract_z
 _atom_site_occupancy
  Ni  Ni1  1  0.147015  0.750000  0.294030  1.0
  Ni  Ni2  1  0.852985  0.250000  0.705970  1.0
  B  B3  1  0.433011  0.750000  0.866021  1.0
  B  B4  1  0.566989  0.250000  0.133979  1.0
