# generated using pymatgen
data_LiTlPd2
_symmetry_space_group_name_H-M   'P 1'
_cell_length_a   4.19711688
_cell_length_b   4.19711688
_cell_length_c   4.81546225
_cell_angle_alpha   115.83594565
_cell_angle_beta   115.83594558
_cell_angle_gamma   90.00000001
_symmetry_Int_Tables_number   1
_chemical_formula_structural   LiTlPd2
_chemical_formula_sum   'Li1 Tl1 Pd2'
_cell_volume   66.80260096
_cell_formula_units_Z   1
loop_
 _symmetry_equiv_pos_site_id
 _symmetry_equiv_pos_as_xyz
  1  'x, y, z'
loop_
 _atom_site_type_symbol
 _atom_site_label
 _atom_site_symmetry_multiplicity
 _atom_site_fract_x
 _atom_site_fract_y
 _atom_site_fract_z
 _atom_site_occupancy
  Li  Li1  1  0.500000  0.500000  0.000000  1.0
  Tl  Tl2  1  0.000000  0.000000  0.000000  1.0
  Pd  Pd3  1  0.250000  0.750000  0.500000  1.0
  Pd  Pd4  1  0.750000  0.250000  0.500000  1.0
