# generated using pymatgen
data_V5Te4
_symmetry_space_group_name_H-M   'P 1'
_cell_length_a   3.97651886
_cell_length_b   7.13819490
_cell_length_c   7.13819491
_cell_angle_alpha   85.55032205
_cell_angle_beta   73.82702510
_cell_angle_gamma   73.82702510
_symmetry_Int_Tables_number   1
_chemical_formula_structural   V5Te4
_chemical_formula_sum   'V5 Te4'
_cell_volume   186.89897480
_cell_formula_units_Z   1
loop_
 _symmetry_equiv_pos_site_id
 _symmetry_equiv_pos_as_xyz
  1  'x, y, z'
loop_
 _atom_site_type_symbol
 _atom_site_label
 _atom_site_symmetry_multiplicity
 _atom_site_fract_x
 _atom_site_fract_y
 _atom_site_fract_z
 _atom_site_occupancy
  V  V1  1  0.000000  0.000000  0.000000  1.0
  V  V2  1  0.339709  0.070779  0.249803  1.0
  V  V3  1  0.589512  0.750197  0.070779  1.0
  V  V4  1  0.410488  0.249803  0.929221  1.0
  V  V5  1  0.660291  0.929221  0.750197  1.0
  Te  Te6  1  0.073904  0.202109  0.650084  1.0
  Te  Te7  1  0.723988  0.349916  0.202109  1.0
  Te  Te8  1  0.276012  0.650084  0.797891  1.0
  Te  Te9  1  0.926096  0.797891  0.349916  1.0
