# generated using pymatgen
data_In2Au
_symmetry_space_group_name_H-M   'P 1'
_cell_length_a   4.73270941
_cell_length_b   4.73270942
_cell_length_c   4.73270942
_cell_angle_alpha   60.00000000
_cell_angle_beta   59.99999996
_cell_angle_gamma   59.99999998
_symmetry_Int_Tables_number   1
_chemical_formula_structural   In2Au
_chemical_formula_sum   'In2 Au1'
_cell_volume   74.95740140
_cell_formula_units_Z   1
loop_
 _symmetry_equiv_pos_site_id
 _symmetry_equiv_pos_as_xyz
  1  'x, y, z'
loop_
 _atom_site_type_symbol
 _atom_site_label
 _atom_site_symmetry_multiplicity
 _atom_site_fract_x
 _atom_site_fract_y
 _atom_site_fract_z
 _atom_site_occupancy
  In  In1  1  0.750000  0.750000  0.750000  1.0
  In  In2  1  0.250000  0.250000  0.250000  1.0
  Au  Au3  1  0.000000  0.000000  0.000000  1.0
