# generated using pymatgen
data_TbN
_symmetry_space_group_name_H-M   'P 1'
_cell_length_a   3.49820696
_cell_length_b   3.49820697
_cell_length_c   3.49820697
_cell_angle_alpha   60.00000007
_cell_angle_beta   60.00000004
_cell_angle_gamma   60.00000001
_symmetry_Int_Tables_number   1
_chemical_formula_structural   TbN
_chemical_formula_sum   'Tb1 N1'
_cell_volume   30.27063306
_cell_formula_units_Z   1
loop_
 _symmetry_equiv_pos_site_id
 _symmetry_equiv_pos_as_xyz
  1  'x, y, z'
loop_
 _atom_site_type_symbol
 _atom_site_label
 _atom_site_symmetry_multiplicity
 _atom_site_fract_x
 _atom_site_fract_y
 _atom_site_fract_z
 _atom_site_occupancy
  Tb  Tb1  1  0.500000  0.500000  0.500000  1.0
  N  N2  1  0.000000  0.000000  0.000000  1.0
