# generated using pymatgen
data_MnNbGe
_symmetry_space_group_name_H-M   'P 1'
_cell_length_a   3.64569709
_cell_length_b   6.58349114
_cell_length_c   6.58110367
_cell_angle_alpha   120.01200114
_cell_angle_beta   90.00000000
_cell_angle_gamma   90.00000000
_symmetry_Int_Tables_number   1
_chemical_formula_structural   MnNbGe
_chemical_formula_sum   'Mn3 Nb3 Ge3'
_cell_volume   136.77718721
_cell_formula_units_Z   3
loop_
 _symmetry_equiv_pos_site_id
 _symmetry_equiv_pos_as_xyz
  1  'x, y, z'
loop_
 _atom_site_type_symbol
 _atom_site_label
 _atom_site_symmetry_multiplicity
 _atom_site_fract_x
 _atom_site_fract_y
 _atom_site_fract_z
 _atom_site_occupancy
  Mn  Mn1  1  0.000000  0.250679  0.000000  1.0
  Mn  Mn2  1  0.000000  0.749432  0.749524  1.0
  Mn  Mn3  1  0.000000  0.999909  0.250476  1.0
  Nb  Nb4  1  0.500000  0.582975  0.000000  1.0
  Nb  Nb5  1  0.500000  0.416920  0.416953  1.0
  Nb  Nb6  1  0.500000  0.999966  0.583047  1.0
  Ge  Ge7  1  0.000000  0.333308  0.666580  1.0
  Ge  Ge8  1  0.000000  0.666728  0.333420  1.0
  Ge  Ge9  1  0.500000  0.999983  0.000000  1.0
