# generated using pymatgen
data_NdPt2
_symmetry_space_group_name_H-M   'P 1'
_cell_length_a   5.52436411
_cell_length_b   5.52436411
_cell_length_c   5.52436412
_cell_angle_alpha   59.99999996
_cell_angle_beta   59.99999996
_cell_angle_gamma   60.00000001
_symmetry_Int_Tables_number   1
_chemical_formula_structural   NdPt2
_chemical_formula_sum   'Nd2 Pt4'
_cell_volume   119.21527039
_cell_formula_units_Z   2
loop_
 _symmetry_equiv_pos_site_id
 _symmetry_equiv_pos_as_xyz
  1  'x, y, z'
loop_
 _atom_site_type_symbol
 _atom_site_label
 _atom_site_symmetry_multiplicity
 _atom_site_fract_x
 _atom_site_fract_y
 _atom_site_fract_z
 _atom_site_occupancy
  Nd  Nd1  1  0.875000  0.875000  0.875000  1.0
  Nd  Nd2  1  0.125000  0.125000  0.125000  1.0
  Pt  Pt3  1  0.500000  0.500000  0.500000  1.0
  Pt  Pt4  1  0.500000  0.500000  0.000000  1.0
  Pt  Pt5  1  0.000000  0.500000  0.500000  1.0
  Pt  Pt6  1  0.500000  0.000000  0.500000  1.0
