# generated using pymatgen
data_BaTiO3
_symmetry_space_group_name_H-M   'P 1'
_cell_length_a   4.12088337
_cell_length_b   4.12088337
_cell_length_c   5.03251139
_cell_angle_alpha   90.00000000
_cell_angle_beta   90.00000000
_cell_angle_gamma   90.40671570
_symmetry_Int_Tables_number   1
_chemical_formula_structural   BaTiO3
_chemical_formula_sum   'Ba1 Ti1 O3'
_cell_volume   85.45834363
_cell_formula_units_Z   1
loop_
 _symmetry_equiv_pos_site_id
 _symmetry_equiv_pos_as_xyz
  1  'x, y, z'
loop_
 _atom_site_type_symbol
 _atom_site_label
 _atom_site_symmetry_multiplicity
 _atom_site_fract_x
 _atom_site_fract_y
 _atom_site_fract_z
 _atom_site_occupancy
  Ba  Ba1  1  0.996648  0.003352  0.000000  1.0
  Ti  Ti2  1  0.491002  0.508998  0.500000  1.0
  O  O3  1  0.009670  0.990330  0.500000  1.0
  O  O4  1  0.012310  0.488830  0.500000  1.0
  O  O5  1  0.511170  0.987690  0.500000  1.0
