# generated using pymatgen
data_NaCuO
_symmetry_space_group_name_H-M   'P 1'
_cell_length_a   4.72753955
_cell_length_b   6.70111235
_cell_length_c   6.70111235
_cell_angle_alpha   82.85230127
_cell_angle_beta   69.34482514
_cell_angle_gamma   69.34482506
_symmetry_Int_Tables_number   1
_chemical_formula_structural   NaCuO
_chemical_formula_sum   'Na4 Cu4 O4'
_cell_volume   185.87503246
_cell_formula_units_Z   4
loop_
 _symmetry_equiv_pos_site_id
 _symmetry_equiv_pos_as_xyz
  1  'x, y, z'
loop_
 _atom_site_type_symbol
 _atom_site_label
 _atom_site_symmetry_multiplicity
 _atom_site_fract_x
 _atom_site_fract_y
 _atom_site_fract_z
 _atom_site_occupancy
  Na  Na1  1  0.924041  0.825904  0.825904  1.0
  Na  Na2  1  0.250054  0.825904  0.174096  1.0
  Na  Na3  1  0.250054  0.174096  0.825904  1.0
  Na  Na4  1  0.575850  0.174096  0.174096  1.0
  Cu  Cu5  1  0.898667  0.500000  0.202666  1.0
  Cu  Cu6  1  0.898667  0.202666  0.500000  1.0
  Cu  Cu7  1  0.601333  0.797334  0.500000  1.0
  Cu  Cu8  1  0.601333  0.500000  0.797334  1.0
  O  O9  1  0.455391  0.794555  0.794555  1.0
  O  O10  1  0.750053  0.794555  0.205445  1.0
  O  O11  1  0.750053  0.205445  0.794555  1.0
  O  O12  1  0.044502  0.205445  0.205445  1.0
