# generated using pymatgen
data_Ti2Cu
_symmetry_space_group_name_H-M   'P 1'
_cell_length_a   2.93247883
_cell_length_b   2.93247883
_cell_length_c   5.76111544
_cell_angle_alpha   104.74432536
_cell_angle_beta   104.74432537
_cell_angle_gamma   89.99999992
_symmetry_Int_Tables_number   1
_chemical_formula_structural   Ti2Cu
_chemical_formula_sum   'Ti2 Cu1'
_cell_volume   46.22203549
_cell_formula_units_Z   1
loop_
 _symmetry_equiv_pos_site_id
 _symmetry_equiv_pos_as_xyz
  1  'x, y, z'
loop_
 _atom_site_type_symbol
 _atom_site_label
 _atom_site_symmetry_multiplicity
 _atom_site_fract_x
 _atom_site_fract_y
 _atom_site_fract_z
 _atom_site_occupancy
  Ti  Ti1  1  0.662254  0.662254  0.324508  1.0
  Ti  Ti2  1  0.337746  0.337746  0.675492  1.0
  Cu  Cu3  1  0.000000  0.000000  0.000000  1.0
