# generated using pymatgen
data_KSi2Hg
_symmetry_space_group_name_H-M   'P 1'
_cell_length_a   5.10395040
_cell_length_b   5.10393980
_cell_length_c   5.10392587
_cell_angle_alpha   60.00006833
_cell_angle_beta   59.99984372
_cell_angle_gamma   59.99991435
_symmetry_Int_Tables_number   1
_chemical_formula_structural   KSi2Hg
_chemical_formula_sum   'K1 Si2 Hg1'
_cell_volume   94.01578552
_cell_formula_units_Z   1
loop_
 _symmetry_equiv_pos_site_id
 _symmetry_equiv_pos_as_xyz
  1  'x, y, z'
loop_
 _atom_site_type_symbol
 _atom_site_label
 _atom_site_symmetry_multiplicity
 _atom_site_fract_x
 _atom_site_fract_y
 _atom_site_fract_z
 _atom_site_occupancy
  K  K1  1  0.750000  0.750000  0.750001  1.0
  Si  Si2  1  0.999999  0.000000  0.000000  1.0
  Si  Si3  1  0.250000  0.250000  0.250000  1.0
  Hg  Hg4  1  0.500000  0.500000  0.499999  1.0
