# generated using pymatgen
data_Pm2AgPt
_symmetry_space_group_name_H-M   'P 1'
_cell_length_a   5.16000865
_cell_length_b   5.16000865
_cell_length_c   5.16000865
_cell_angle_alpha   60.00000000
_cell_angle_beta   60.00000000
_cell_angle_gamma   60.00000000
_symmetry_Int_Tables_number   1
_chemical_formula_structural   Pm2AgPt
_chemical_formula_sum   'Pm2 Ag1 Pt1'
_cell_volume   97.14854290
_cell_formula_units_Z   1
loop_
 _symmetry_equiv_pos_site_id
 _symmetry_equiv_pos_as_xyz
  1  'x, y, z'
loop_
 _atom_site_type_symbol
 _atom_site_label
 _atom_site_symmetry_multiplicity
 _atom_site_fract_x
 _atom_site_fract_y
 _atom_site_fract_z
 _atom_site_occupancy
  Pm  Pm1  1  0.000000  0.000000  0.000000  1.0
  Pm  Pm2  1  0.500000  0.500000  0.500000  1.0
  Ag  Ag3  1  0.250000  0.250000  0.250000  1.0
  Pt  Pt4  1  0.750001  0.750001  0.750001  1.0
