# generated using pymatgen
data_Ba4Y(CuO3)3
_symmetry_space_group_name_H-M   'P 1'
_cell_length_a   8.16489053
_cell_length_b   8.16489053
_cell_length_c   8.16489053
_cell_angle_alpha   90.00000000
_cell_angle_beta   90.00000000
_cell_angle_gamma   90.00000000
_symmetry_Int_Tables_number   1
_chemical_formula_structural   Ba4Y(CuO3)3
_chemical_formula_sum   'Ba8 Y2 Cu6 O18'
_cell_volume   544.31599824
_cell_formula_units_Z   2
loop_
 _symmetry_equiv_pos_site_id
 _symmetry_equiv_pos_as_xyz
  1  'x, y, z'
loop_
 _atom_site_type_symbol
 _atom_site_label
 _atom_site_symmetry_multiplicity
 _atom_site_fract_x
 _atom_site_fract_y
 _atom_site_fract_z
 _atom_site_occupancy
  Ba  Ba1  1  0.750000  0.250000  0.250000  1.0
  Ba  Ba2  1  0.250000  0.250000  0.750000  1.0
  Ba  Ba3  1  0.250000  0.750000  0.250000  1.0
  Ba  Ba4  1  0.750000  0.750000  0.750000  1.0
  Ba  Ba5  1  0.250000  0.750000  0.750000  1.0
  Ba  Ba6  1  0.750000  0.750000  0.250000  1.0
  Ba  Ba7  1  0.750000  0.250000  0.750000  1.0
  Ba  Ba8  1  0.250000  0.250000  0.250000  1.0
  Y  Y9  1  0.000000  0.000000  0.000000  1.0
  Y  Y10  1  0.500000  0.500000  0.500000  1.0
  Cu  Cu11  1  0.000000  0.500000  0.000000  1.0
  Cu  Cu12  1  0.000000  0.000000  0.500000  1.0
  Cu  Cu13  1  0.500000  0.000000  0.000000  1.0
  Cu  Cu14  1  0.500000  0.000000  0.500000  1.0
  Cu  Cu15  1  0.500000  0.500000  0.000000  1.0
  Cu  Cu16  1  0.000000  0.500000  0.500000  1.0
  O  O17  1  0.000000  0.273120  0.000000  1.0
  O  O18  1  0.000000  0.726880  0.000000  1.0
  O  O19  1  0.000000  0.000000  0.273120  1.0
  O  O20  1  0.000000  0.000000  0.726880  1.0
  O  O21  1  0.273120  0.000000  0.000000  1.0
  O  O22  1  0.726880  0.000000  0.000000  1.0
  O  O23  1  0.500000  0.226880  0.500000  1.0
  O  O24  1  0.500000  0.773120  0.500000  1.0
  O  O25  1  0.500000  0.500000  0.226880  1.0
  O  O26  1  0.500000  0.500000  0.773120  1.0
  O  O27  1  0.226880  0.500000  0.500000  1.0
  O  O28  1  0.773120  0.500000  0.500000  1.0
  O  O29  1  0.500000  0.250000  0.000000  1.0
  O  O30  1  0.500000  0.750000  0.000000  1.0
  O  O31  1  0.000000  0.500000  0.250000  1.0
  O  O32  1  0.000000  0.500000  0.750000  1.0
  O  O33  1  0.250000  0.000000  0.500000  1.0
  O  O34  1  0.750000  0.000000  0.500000  1.0
