# generated using pymatgen
data_Be2NiRh
_symmetry_space_group_name_H-M   'P 1'
_cell_length_a   3.81929262
_cell_length_b   3.81929262
_cell_length_c   3.81929262
_cell_angle_alpha   60.00000000
_cell_angle_beta   60.00000000
_cell_angle_gamma   60.00000000
_symmetry_Int_Tables_number   1
_chemical_formula_structural   Be2NiRh
_chemical_formula_sum   'Be2 Ni1 Rh1'
_cell_volume   39.39433767
_cell_formula_units_Z   1
loop_
 _symmetry_equiv_pos_site_id
 _symmetry_equiv_pos_as_xyz
  1  'x, y, z'
loop_
 _atom_site_type_symbol
 _atom_site_label
 _atom_site_symmetry_multiplicity
 _atom_site_fract_x
 _atom_site_fract_y
 _atom_site_fract_z
 _atom_site_occupancy
  Be  Be1  1  0.499999  0.499999  0.499999  1.0
  Be  Be2  1  0.000000  0.000000  0.000000  1.0
  Ni  Ni3  1  0.249999  0.249999  0.249999  1.0
  Rh  Rh4  1  0.750000  0.750000  0.750000  1.0
