# generated using pymatgen
data_LiSc2Pt
_symmetry_space_group_name_H-M   'P 1'
_cell_length_a   4.67706036
_cell_length_b   4.67707860
_cell_length_c   4.67706163
_cell_angle_alpha   60.00010152
_cell_angle_beta   60.00017859
_cell_angle_gamma   59.99995894
_symmetry_Int_Tables_number   1
_chemical_formula_structural   LiSc2Pt
_chemical_formula_sum   'Li1 Sc2 Pt1'
_cell_volume   72.34466712
_cell_formula_units_Z   1
loop_
 _symmetry_equiv_pos_site_id
 _symmetry_equiv_pos_as_xyz
  1  'x, y, z'
loop_
 _atom_site_type_symbol
 _atom_site_label
 _atom_site_symmetry_multiplicity
 _atom_site_fract_x
 _atom_site_fract_y
 _atom_site_fract_z
 _atom_site_occupancy
  Li  Li1  1  0.249999  0.250001  0.250000  1.0
  Sc  Sc2  1  0.000000  0.999998  0.000000  1.0
  Sc  Sc3  1  0.500002  0.499999  0.500000  1.0
  Pt  Pt4  1  0.749998  0.750000  0.749999  1.0
