# generated using pymatgen
data_ScSi
_symmetry_space_group_name_H-M   'P 1'
_cell_length_a   3.66793132
_cell_length_b   4.00254547
_cell_length_c   5.34183403
_cell_angle_alpha   112.00215739
_cell_angle_beta   90.00000000
_cell_angle_gamma   90.00000000
_symmetry_Int_Tables_number   1
_chemical_formula_structural   ScSi
_chemical_formula_sum   'Sc2 Si2'
_cell_volume   72.71217122
_cell_formula_units_Z   2
loop_
 _symmetry_equiv_pos_site_id
 _symmetry_equiv_pos_as_xyz
  1  'x, y, z'
loop_
 _atom_site_type_symbol
 _atom_site_label
 _atom_site_symmetry_multiplicity
 _atom_site_fract_x
 _atom_site_fract_y
 _atom_site_fract_z
 _atom_site_occupancy
  Sc  Sc1  1  0.250000  0.861119  0.722239  1.0
  Sc  Sc2  1  0.750000  0.138881  0.277761  1.0
  Si  Si3  1  0.250000  0.581292  0.162585  1.0
  Si  Si4  1  0.750000  0.418708  0.837415  1.0
