# generated using pymatgen
data_NaTl2Bi
_symmetry_space_group_name_H-M   'P 1'
_cell_length_a   5.60461704
_cell_length_b   5.60462123
_cell_length_c   5.60463028
_cell_angle_alpha   59.99990743
_cell_angle_beta   59.99994428
_cell_angle_gamma   59.99984295
_symmetry_Int_Tables_number   1
_chemical_formula_structural   NaTl2Bi
_chemical_formula_sum   'Na1 Tl2 Bi1'
_cell_volume   124.48676443
_cell_formula_units_Z   1
loop_
 _symmetry_equiv_pos_site_id
 _symmetry_equiv_pos_as_xyz
  1  'x, y, z'
loop_
 _atom_site_type_symbol
 _atom_site_label
 _atom_site_symmetry_multiplicity
 _atom_site_fract_x
 _atom_site_fract_y
 _atom_site_fract_z
 _atom_site_occupancy
  Na  Na1  1  0.750004  0.749999  0.749998  1.0
  Tl  Tl2  1  0.999998  0.000001  0.000000  1.0
  Tl  Tl3  1  0.500000  0.500000  0.500001  1.0
  Bi  Bi4  1  0.249998  0.250001  0.250001  1.0
