# generated using pymatgen
data_Li2NdIn
_symmetry_space_group_name_H-M   'P 1'
_cell_length_a   4.95466965
_cell_length_b   4.95466680
_cell_length_c   4.95466528
_cell_angle_alpha   59.99991568
_cell_angle_beta   59.99992706
_cell_angle_gamma   59.99995123
_symmetry_Int_Tables_number   1
_chemical_formula_structural   Li2NdIn
_chemical_formula_sum   'Li2 Nd1 In1'
_cell_volume   86.00581257
_cell_formula_units_Z   1
loop_
 _symmetry_equiv_pos_site_id
 _symmetry_equiv_pos_as_xyz
  1  'x, y, z'
loop_
 _atom_site_type_symbol
 _atom_site_label
 _atom_site_symmetry_multiplicity
 _atom_site_fract_x
 _atom_site_fract_y
 _atom_site_fract_z
 _atom_site_occupancy
  Li  Li1  1  0.000000  0.000000  0.000000  1.0
  Li  Li2  1  0.499999  0.499999  0.499999  1.0
  Nd  Nd3  1  0.750001  0.750001  0.750001  1.0
  In  In4  1  0.250001  0.250001  0.250001  1.0
