# generated using pymatgen
data_TlAuO2
_symmetry_space_group_name_H-M   'P 1'
_cell_length_a   3.53817594
_cell_length_b   3.53817547
_cell_length_c   6.65189924
_cell_angle_alpha   74.57645065
_cell_angle_beta   74.57645513
_cell_angle_gamma   59.99999491
_symmetry_Int_Tables_number   1
_chemical_formula_structural   TlAuO2
_chemical_formula_sum   'Tl1 Au1 O2'
_cell_volume   68.63180927
_cell_formula_units_Z   1
loop_
 _symmetry_equiv_pos_site_id
 _symmetry_equiv_pos_as_xyz
  1  'x, y, z'
loop_
 _atom_site_type_symbol
 _atom_site_label
 _atom_site_symmetry_multiplicity
 _atom_site_fract_x
 _atom_site_fract_y
 _atom_site_fract_z
 _atom_site_occupancy
  Tl  Tl1  1  0.500000  0.500000  0.500000  1.0
  Au  Au2  1  0.000000  0.000000  0.000000  1.0
  O  O3  1  0.892224  0.892224  0.323327  1.0
  O  O4  1  0.107776  0.107776  0.676673  1.0
