# generated using pymatgen
data_ErTaOs2
_symmetry_space_group_name_H-M   'P 1'
_cell_length_a   4.62627275
_cell_length_b   4.62624841
_cell_length_c   4.62626266
_cell_angle_alpha   59.99987653
_cell_angle_beta   59.99983537
_cell_angle_gamma   59.99991920
_symmetry_Int_Tables_number   1
_chemical_formula_structural   ErTaOs2
_chemical_formula_sum   'Er1 Ta1 Os2'
_cell_volume   70.01228638
_cell_formula_units_Z   1
loop_
 _symmetry_equiv_pos_site_id
 _symmetry_equiv_pos_as_xyz
  1  'x, y, z'
loop_
 _atom_site_type_symbol
 _atom_site_label
 _atom_site_symmetry_multiplicity
 _atom_site_fract_x
 _atom_site_fract_y
 _atom_site_fract_z
 _atom_site_occupancy
  Er  Er1  1  0.250000  0.250000  0.249998  1.0
  Ta  Ta2  1  0.749999  0.749999  0.749999  1.0
  Os  Os3  1  0.999999  0.999999  0.000001  1.0
  Os  Os4  1  0.499999  0.500000  0.500000  1.0
