# generated using pymatgen
data_SmMgCd2
_symmetry_space_group_name_H-M   'P 1'
_cell_length_a   5.16158101
_cell_length_b   5.16158101
_cell_length_c   5.16158101
_cell_angle_alpha   60.03796667
_cell_angle_beta   60.03796667
_cell_angle_gamma   60.03796667
_symmetry_Int_Tables_number   1
_chemical_formula_structural   SmMgCd2
_chemical_formula_sum   'Sm1 Mg1 Cd2'
_cell_volume   97.32106120
_cell_formula_units_Z   1
loop_
 _symmetry_equiv_pos_site_id
 _symmetry_equiv_pos_as_xyz
  1  'x, y, z'
loop_
 _atom_site_type_symbol
 _atom_site_label
 _atom_site_symmetry_multiplicity
 _atom_site_fract_x
 _atom_site_fract_y
 _atom_site_fract_z
 _atom_site_occupancy
  Sm  Sm1  1  0.749999  0.749999  0.749999  1.0
  Mg  Mg2  1  0.250000  0.250000  0.250000  1.0
  Cd  Cd3  1  0.000010  0.000010  0.000010  1.0
  Cd  Cd4  1  0.499991  0.499991  0.499991  1.0
