# generated using pymatgen
data_PbAuO2
_symmetry_space_group_name_H-M   'P 1'
_cell_length_a   3.75222640
_cell_length_b   3.75222572
_cell_length_c   6.60545255
_cell_angle_alpha   73.49942765
_cell_angle_beta   73.49943093
_cell_angle_gamma   60.00000086
_symmetry_Int_Tables_number   1
_chemical_formula_structural   PbAuO2
_chemical_formula_sum   'Pb1 Au1 O2'
_cell_volume   76.08528490
_cell_formula_units_Z   1
loop_
 _symmetry_equiv_pos_site_id
 _symmetry_equiv_pos_as_xyz
  1  'x, y, z'
loop_
 _atom_site_type_symbol
 _atom_site_label
 _atom_site_symmetry_multiplicity
 _atom_site_fract_x
 _atom_site_fract_y
 _atom_site_fract_z
 _atom_site_occupancy
  Pb  Pb1  1  0.500000  0.500000  0.500000  1.0
  Au  Au2  1  0.000000  0.000000  0.000000  1.0
  O  O3  1  0.107382  0.107382  0.677854  1.0
  O  O4  1  0.892618  0.892618  0.322146  1.0
