# generated using pymatgen
data_Li2SnHg
_symmetry_space_group_name_H-M   'P 1'
_cell_length_a   4.76779784
_cell_length_b   4.76777755
_cell_length_c   4.76778524
_cell_angle_alpha   60.00000392
_cell_angle_beta   59.99979512
_cell_angle_gamma   59.99985792
_symmetry_Int_Tables_number   1
_chemical_formula_structural   Li2SnHg
_chemical_formula_sum   'Li2 Sn1 Hg1'
_cell_volume   76.63627337
_cell_formula_units_Z   1
loop_
 _symmetry_equiv_pos_site_id
 _symmetry_equiv_pos_as_xyz
  1  'x, y, z'
loop_
 _atom_site_type_symbol
 _atom_site_label
 _atom_site_symmetry_multiplicity
 _atom_site_fract_x
 _atom_site_fract_y
 _atom_site_fract_z
 _atom_site_occupancy
  Li  Li1  1  0.000000  0.000001  0.000000  1.0
  Li  Li2  1  0.500001  0.500001  0.500000  1.0
  Sn  Sn3  1  0.750000  0.749998  0.750003  1.0
  Hg  Hg4  1  0.250001  0.250002  0.249999  1.0
