# generated using pymatgen
data_YGe
_symmetry_space_group_name_H-M   'P 1'
_cell_length_a   3.96893015
_cell_length_b   4.30662138
_cell_length_c   5.79785000
_cell_angle_alpha   111.80186987
_cell_angle_beta   90.00000000
_cell_angle_gamma   90.00000000
_symmetry_Int_Tables_number   1
_chemical_formula_structural   YGe
_chemical_formula_sum   'Y2 Ge2'
_cell_volume   92.01247921
_cell_formula_units_Z   2
loop_
 _symmetry_equiv_pos_site_id
 _symmetry_equiv_pos_as_xyz
  1  'x, y, z'
loop_
 _atom_site_type_symbol
 _atom_site_label
 _atom_site_symmetry_multiplicity
 _atom_site_fract_x
 _atom_site_fract_y
 _atom_site_fract_z
 _atom_site_occupancy
  Y  Y1  1  0.250000  0.861829  0.723659  1.0
  Y  Y2  1  0.750000  0.138171  0.276341  1.0
  Ge  Ge3  1  0.250000  0.585238  0.170476  1.0
  Ge  Ge4  1  0.750000  0.414762  0.829524  1.0
