# generated using pymatgen
data_Pr2CuO4
_symmetry_space_group_name_H-M   'P 1'
_cell_length_a   3.78804994
_cell_length_b   3.78804933
_cell_length_c   7.06776675
_cell_angle_alpha   105.54413347
_cell_angle_beta   105.54413066
_cell_angle_gamma   90.00000156
_symmetry_Int_Tables_number   1
_chemical_formula_structural   Pr2CuO4
_chemical_formula_sum   'Pr2 Cu1 O4'
_cell_volume   93.85231273
_cell_formula_units_Z   1
loop_
 _symmetry_equiv_pos_site_id
 _symmetry_equiv_pos_as_xyz
  1  'x, y, z'
loop_
 _atom_site_type_symbol
 _atom_site_label
 _atom_site_symmetry_multiplicity
 _atom_site_fract_x
 _atom_site_fract_y
 _atom_site_fract_z
 _atom_site_occupancy
  Pr  Pr1  1  0.362168  0.362168  0.724335  1.0
  Pr  Pr2  1  0.637832  0.637832  0.275665  1.0
  Cu  Cu3  1  0.000000  0.000000  0.000000  1.0
  O  O4  1  0.183858  0.183858  0.367717  1.0
  O  O5  1  0.816142  0.816142  0.632283  1.0
  O  O6  1  0.500000  0.000000  0.000000  1.0
  O  O7  1  0.000000  0.500000  0.000000  1.0
