# generated using pymatgen
data_CrAgS2
_symmetry_space_group_name_H-M   'P 1'
_cell_length_a   7.10786784
_cell_length_b   7.10786784
_cell_length_c   7.10786784
_cell_angle_alpha   28.90378080
_cell_angle_beta   28.90378075
_cell_angle_gamma   28.90378081
_symmetry_Int_Tables_number   1
_chemical_formula_structural   CrAgS2
_chemical_formula_sum   'Cr1 Ag1 S2'
_cell_volume   74.19198173
_cell_formula_units_Z   1
loop_
 _symmetry_equiv_pos_site_id
 _symmetry_equiv_pos_as_xyz
  1  'x, y, z'
loop_
 _atom_site_type_symbol
 _atom_site_label
 _atom_site_symmetry_multiplicity
 _atom_site_fract_x
 _atom_site_fract_y
 _atom_site_fract_z
 _atom_site_occupancy
  Cr  Cr1  1  0.000772  0.000772  0.000772  1.0
  Ag  Ag2  1  0.154117  0.154117  0.154117  1.0
  S  S3  1  0.732959  0.732959  0.732959  1.0
  S  S4  1  0.273551  0.273551  0.273551  1.0
