# generated using pymatgen
data_LaMnO3
_symmetry_space_group_name_H-M   'P 1'
_cell_length_a   5.85109508
_cell_length_b   5.61188240
_cell_length_c   7.78606696
_cell_angle_alpha   90.00144694
_cell_angle_beta   89.84641948
_cell_angle_gamma   89.99824343
_symmetry_Int_Tables_number   1
_chemical_formula_structural   LaMnO3
_chemical_formula_sum   'La4 Mn4 O12'
_cell_volume   255.65970931
_cell_formula_units_Z   4
loop_
 _symmetry_equiv_pos_site_id
 _symmetry_equiv_pos_as_xyz
  1  'x, y, z'
loop_
 _atom_site_type_symbol
 _atom_site_label
 _atom_site_symmetry_multiplicity
 _atom_site_fract_x
 _atom_site_fract_y
 _atom_site_fract_z
 _atom_site_occupancy
  La  La1  1  0.946073  0.510431  0.749850  1.0
  La  La2  1  0.445687  0.988748  0.749579  1.0
  La  La3  1  0.553972  0.011251  0.250451  1.0
  La  La4  1  0.054193  0.489617  0.250246  1.0
  Mn  Mn5  1  0.000031  0.999834  0.500045  1.0
  Mn  Mn6  1  0.000074  0.999827  0.999947  1.0
  Mn  Mn7  1  0.500017  0.499941  0.999988  1.0
  Mn  Mn8  1  0.500012  0.499879  0.499926  1.0
  O  O9  1  0.696310  0.776273  0.544096  1.0
  O  O10  1  0.187837  0.719493  0.955229  1.0
  O  O11  1  0.519056  0.412963  0.750257  1.0
  O  O12  1  0.019979  0.086906  0.750934  1.0
  O  O13  1  0.979907  0.913052  0.249047  1.0
  O  O14  1  0.312388  0.219760  0.045759  1.0
  O  O15  1  0.811954  0.280749  0.044907  1.0
  O  O16  1  0.303997  0.223957  0.455844  1.0
  O  O17  1  0.481032  0.587097  0.249640  1.0
  O  O18  1  0.195695  0.724053  0.544200  1.0
  O  O19  1  0.687600  0.780167  0.954348  1.0
  O  O20  1  0.804186  0.276001  0.455707  1.0
