# generated using pymatgen
data_MgTaN2
_symmetry_space_group_name_H-M   'P 1'
_cell_length_a   6.10746877
_cell_length_b   8.14744406
_cell_length_c   5.39255654
_cell_angle_alpha   29.05896332
_cell_angle_beta   55.50829306
_cell_angle_gamma   41.44271702
_symmetry_Int_Tables_number   1
_chemical_formula_structural   MgTaN2
_chemical_formula_sum   'Mg2 Ta2 N4'
_cell_volume   82.89420284
_cell_formula_units_Z   2
loop_
 _symmetry_equiv_pos_site_id
 _symmetry_equiv_pos_as_xyz
  1  'x, y, z'
loop_
 _atom_site_type_symbol
 _atom_site_label
 _atom_site_symmetry_multiplicity
 _atom_site_fract_x
 _atom_site_fract_y
 _atom_site_fract_z
 _atom_site_occupancy
  Mg  Mg1  1  0.500000  0.000000  0.000000  1.0
  Mg  Mg2  1  0.250000  0.500000  0.000000  1.0
  Ta  Ta3  1  0.000000  0.000000  0.000000  1.0
  Ta  Ta4  1  0.750000  0.500000  0.000000  1.0
  N  N5  1  0.251991  0.000000  0.496017  1.0
  N  N6  1  0.748009  0.000000  0.503983  1.0
  N  N7  1  0.498009  0.500000  0.503983  1.0
  N  N8  1  0.001991  0.500000  0.496017  1.0
