# generated using pymatgen
data_Li2ZrN2
_symmetry_space_group_name_H-M   'P 1'
_cell_length_a   3.29729790
_cell_length_b   3.29727213
_cell_length_c   5.49433141
_cell_angle_alpha   90.00000002
_cell_angle_beta   90.00120702
_cell_angle_gamma   119.99973201
_symmetry_Int_Tables_number   1
_chemical_formula_structural   Li2ZrN2
_chemical_formula_sum   'Li2 Zr1 N2'
_cell_volume   51.73204349
_cell_formula_units_Z   1
loop_
 _symmetry_equiv_pos_site_id
 _symmetry_equiv_pos_as_xyz
  1  'x, y, z'
loop_
 _atom_site_type_symbol
 _atom_site_label
 _atom_site_symmetry_multiplicity
 _atom_site_fract_x
 _atom_site_fract_y
 _atom_site_fract_z
 _atom_site_occupancy
  Li  Li1  1  0.333350  0.666675  0.618861  1.0
  Li  Li2  1  0.666650  0.333325  0.381139  1.0
  Zr  Zr3  1  0.000000  0.000000  0.000000  1.0
  N  N4  1  0.333345  0.666673  0.224147  1.0
  N  N5  1  0.666655  0.333327  0.775853  1.0
