# generated using pymatgen
data_LiCoOF2
_symmetry_space_group_name_H-M   'P 1'
_cell_length_a   5.28853032
_cell_length_b   5.41435052
_cell_length_c   5.05052166
_cell_angle_alpha   114.26694268
_cell_angle_beta   58.42931906
_cell_angle_gamma   119.22974717
_symmetry_Int_Tables_number   1
_chemical_formula_structural   LiCoOF2
_chemical_formula_sum   'Li2 Co2 O2 F4'
_cell_volume   105.15095219
_cell_formula_units_Z   2
loop_
 _symmetry_equiv_pos_site_id
 _symmetry_equiv_pos_as_xyz
  1  'x, y, z'
loop_
 _atom_site_type_symbol
 _atom_site_label
 _atom_site_symmetry_multiplicity
 _atom_site_fract_x
 _atom_site_fract_y
 _atom_site_fract_z
 _atom_site_occupancy
  Li  Li1  1  0.422907  0.343142  0.460529  1.0
  Li  Li2  1  0.963280  0.844996  0.959939  1.0
  Co  Co3  1  0.728837  0.211844  0.745151  1.0
  Co  Co4  1  0.238542  0.710966  0.245720  1.0
  O  O5  1  0.378025  0.983312  0.002661  1.0
  O  O6  1  0.104752  0.486525  0.505263  1.0
  F  F7  1  0.027459  0.007018  0.637599  1.0
  F  F8  1  0.642843  0.985699  0.342370  1.0
  F  F9  1  0.497302  0.481442  0.844369  1.0
  F  F10  1  0.841414  0.507738  0.139664  1.0
