# generated using pymatgen
data_Cu2GeSe3
_symmetry_space_group_name_H-M   'P 1'
_cell_length_a   7.95920667
_cell_length_b   11.90479776
_cell_length_c   6.86880638
_cell_angle_alpha   30.06495025
_cell_angle_beta   54.91816913
_cell_angle_gamma   60.18240844
_symmetry_Int_Tables_number   1
_chemical_formula_structural   Cu2GeSe3
_chemical_formula_sum   'Cu4 Ge2 Se6'
_cell_volume   266.82356569
_cell_formula_units_Z   2
loop_
 _symmetry_equiv_pos_site_id
 _symmetry_equiv_pos_as_xyz
  1  'x, y, z'
loop_
 _atom_site_type_symbol
 _atom_site_label
 _atom_site_symmetry_multiplicity
 _atom_site_fract_x
 _atom_site_fract_y
 _atom_site_fract_z
 _atom_site_occupancy
  Cu  Cu1  1  0.996153  0.997860  0.997154  1.0
  Cu  Cu2  1  0.997836  0.665320  0.003581  1.0
  Cu  Cu3  1  0.494512  0.337287  0.987606  1.0
  Cu  Cu4  1  0.494565  0.669726  0.996735  1.0
  Ge  Ge5  1  0.006582  0.339962  0.988832  1.0
  Ge  Ge6  1  0.509592  0.990101  0.011994  1.0
  Se  Se7  1  0.122462  0.334226  0.254728  1.0
  Se  Se8  1  0.124419  0.667406  0.244969  1.0
  Se  Se9  1  0.616811  0.339099  0.238402  1.0
  Se  Se10  1  0.120067  0.992720  0.255905  1.0
  Se  Se11  1  0.626735  0.664738  0.244591  1.0
  Se  Se12  1  0.623569  0.000063  0.255879  1.0
