# generated using pymatgen
data_BeF2
_symmetry_space_group_name_H-M   'P 1'
_cell_length_a   8.56086072
_cell_length_b   8.56086072
_cell_length_c   8.56086072
_cell_angle_alpha   90.00000000
_cell_angle_beta   90.00000000
_cell_angle_gamma   90.00000000
_symmetry_Int_Tables_number   1
_chemical_formula_structural   BeF2
_chemical_formula_sum   'Be12 F24'
_cell_volume   627.41123918
_cell_formula_units_Z   12
loop_
 _symmetry_equiv_pos_site_id
 _symmetry_equiv_pos_as_xyz
  1  'x, y, z'
loop_
 _atom_site_type_symbol
 _atom_site_label
 _atom_site_symmetry_multiplicity
 _atom_site_fract_x
 _atom_site_fract_y
 _atom_site_fract_z
 _atom_site_occupancy
  Be  Be1  1  0.000000  0.750000  0.500000  1.0
  Be  Be2  1  0.000000  0.500000  0.250000  1.0
  Be  Be3  1  0.250000  0.500000  0.000000  1.0
  Be  Be4  1  0.500000  0.000000  0.750000  1.0
  Be  Be5  1  0.500000  0.000000  0.250000  1.0
  Be  Be6  1  0.500000  0.250000  0.000000  1.0
  Be  Be7  1  0.000000  0.250000  0.500000  1.0
  Be  Be8  1  0.500000  0.750000  0.000000  1.0
  Be  Be9  1  0.000000  0.500000  0.750000  1.0
  Be  Be10  1  0.750000  0.000000  0.500000  1.0
  Be  Be11  1  0.750000  0.500000  0.000000  1.0
  Be  Be12  1  0.250000  0.000000  0.500000  1.0
  F  F13  1  0.033274  0.645587  0.645587  1.0
  F  F14  1  0.466726  0.854413  0.145587  1.0
  F  F15  1  0.033274  0.354413  0.354413  1.0
  F  F16  1  0.854413  0.145587  0.466726  1.0
  F  F17  1  0.645587  0.645587  0.033274  1.0
  F  F18  1  0.145587  0.854413  0.466726  1.0
  F  F19  1  0.645587  0.966726  0.354413  1.0
  F  F20  1  0.354413  0.966726  0.645587  1.0
  F  F21  1  0.645587  0.033274  0.645587  1.0
  F  F22  1  0.854413  0.854413  0.533274  1.0
  F  F23  1  0.145587  0.145587  0.533274  1.0
  F  F24  1  0.854413  0.466726  0.145587  1.0
  F  F25  1  0.854413  0.533274  0.854413  1.0
  F  F26  1  0.466726  0.145587  0.854413  1.0
  F  F27  1  0.145587  0.533274  0.145587  1.0
  F  F28  1  0.533274  0.145587  0.145587  1.0
  F  F29  1  0.354413  0.033274  0.354413  1.0
  F  F30  1  0.145587  0.466726  0.854413  1.0
  F  F31  1  0.966726  0.645587  0.354413  1.0
  F  F32  1  0.645587  0.354413  0.966726  1.0
  F  F33  1  0.966726  0.354413  0.645587  1.0
  F  F34  1  0.354413  0.645587  0.966726  1.0
  F  F35  1  0.533274  0.854413  0.854413  1.0
  F  F36  1  0.354413  0.354413  0.033274  1.0
