# generated using pymatgen
data_BaMgF4
_symmetry_space_group_name_H-M   'P 1'
_cell_length_a   4.16516518
_cell_length_b   5.93465462
_cell_length_c   7.71941784
_cell_angle_alpha   90.00000000
_cell_angle_beta   105.65146917
_cell_angle_gamma   90.00000000
_symmetry_Int_Tables_number   1
_chemical_formula_structural   BaMgF4
_chemical_formula_sum   'Ba2 Mg2 F8'
_cell_volume   183.73957525
_cell_formula_units_Z   2
loop_
 _symmetry_equiv_pos_site_id
 _symmetry_equiv_pos_as_xyz
  1  'x, y, z'
loop_
 _atom_site_type_symbol
 _atom_site_label
 _atom_site_symmetry_multiplicity
 _atom_site_fract_x
 _atom_site_fract_y
 _atom_site_fract_z
 _atom_site_occupancy
  Ba  Ba1  1  0.349645  0.852229  0.699291  1.0
  Ba  Ba2  1  0.650355  0.352229  0.300709  1.0
  Mg  Mg3  1  0.083846  0.810051  0.167693  1.0
  Mg  Mg4  1  0.916154  0.310051  0.832307  1.0
  F  F5  1  0.578370  0.796122  0.156740  1.0
  F  F6  1  0.421630  0.296122  0.843260  1.0
  F  F7  1  0.195743  0.620523  0.391487  1.0
  F  F8  1  0.804257  0.120523  0.608513  1.0
  F  F9  1  0.972732  0.993797  0.945465  1.0
  F  F10  1  0.027268  0.493797  0.054536  1.0
  F  F11  1  0.837747  0.577798  0.675493  1.0
  F  F12  1  0.162253  0.077798  0.324507  1.0
