# generated using pymatgen
data_Cu2WS4
_symmetry_space_group_name_H-M   'P 1'
_cell_length_a   5.45701917
_cell_length_b   5.45701943
_cell_length_c   6.56233395
_cell_angle_alpha   114.56866025
_cell_angle_beta   114.56866177
_cell_angle_gamma   89.99999598
_symmetry_Int_Tables_number   1
_chemical_formula_structural   Cu2WS4
_chemical_formula_sum   'Cu2 W1 S4'
_cell_volume   158.06678582
_cell_formula_units_Z   1
loop_
 _symmetry_equiv_pos_site_id
 _symmetry_equiv_pos_as_xyz
  1  'x, y, z'
loop_
 _atom_site_type_symbol
 _atom_site_label
 _atom_site_symmetry_multiplicity
 _atom_site_fract_x
 _atom_site_fract_y
 _atom_site_fract_z
 _atom_site_occupancy
  Cu  Cu1  1  0.500000  0.000000  0.000000  1.0
  Cu  Cu2  1  0.000000  0.500000  0.000000  1.0
  W  W3  1  0.000000  0.000000  0.000000  1.0
  S  S4  1  0.885330  0.885330  0.245175  1.0
  S  S5  1  0.359845  0.359845  0.245175  1.0
  S  S6  1  0.114670  0.640155  0.754825  1.0
  S  S7  1  0.640155  0.114670  0.754825  1.0
