# generated using pymatgen
data_WN2
_symmetry_space_group_name_H-M   'P 1'
_cell_length_a   5.77930034
_cell_length_b   5.78145085
_cell_length_c   6.33070105
_cell_angle_alpha   89.98773688
_cell_angle_beta   90.02632769
_cell_angle_gamma   120.00945938
_symmetry_Int_Tables_number   1
_chemical_formula_structural   WN2
_chemical_formula_sum   'W3 N6'
_cell_volume   183.16947030
_cell_formula_units_Z   3
loop_
 _symmetry_equiv_pos_site_id
 _symmetry_equiv_pos_as_xyz
  1  'x, y, z'
loop_
 _atom_site_type_symbol
 _atom_site_label
 _atom_site_symmetry_multiplicity
 _atom_site_fract_x
 _atom_site_fract_y
 _atom_site_fract_z
 _atom_site_occupancy
  W  W1  1  0.999969  0.474512  0.666616  1.0
  W  W2  1  0.525375  0.525356  0.999833  1.0
  W  W3  1  0.474611  0.999948  0.333592  1.0
  N  N4  1  0.163435  0.742281  0.464184  1.0
  N  N5  1  0.258069  0.421284  0.797722  1.0
  N  N6  1  0.578769  0.836658  0.130776  1.0
  N  N7  1  0.421150  0.257851  0.202436  1.0
  N  N8  1  0.836557  0.578851  0.869264  1.0
  N  N9  1  0.742066  0.163259  0.535611  1.0
