# generated using pymatgen
data_FeOF
_symmetry_space_group_name_H-M   'P 1'
_cell_length_a   6.69499007
_cell_length_b   9.46583416
_cell_length_c   3.09531315
_cell_angle_alpha   90.00000000
_cell_angle_beta   90.00000000
_cell_angle_gamma   135.01399964
_symmetry_Int_Tables_number   1
_chemical_formula_structural   FeOF
_chemical_formula_sum   'Fe4 O4 F4'
_cell_volume   138.67311852
_cell_formula_units_Z   4
loop_
 _symmetry_equiv_pos_site_id
 _symmetry_equiv_pos_as_xyz
  1  'x, y, z'
loop_
 _atom_site_type_symbol
 _atom_site_label
 _atom_site_symmetry_multiplicity
 _atom_site_fract_x
 _atom_site_fract_y
 _atom_site_fract_z
 _atom_site_occupancy
  Fe  Fe1  1  0.994906  0.016704  0.000000  1.0
  Fe  Fe2  1  0.038504  0.516704  0.000000  1.0
  Fe  Fe3  1  0.463787  0.477682  0.500000  1.0
  Fe  Fe4  1  0.491577  0.977682  0.500000  1.0
  O  O5  1  0.196334  0.500607  0.500000  1.0
  O  O6  1  0.315420  0.306195  0.000000  1.0
  O  O7  1  0.296971  0.806195  0.000000  1.0
  O  O8  1  0.804880  0.000607  0.500000  1.0
  F  F9  1  0.196355  0.000866  0.500000  1.0
  F  F10  1  0.706803  0.697945  0.000000  1.0
  F  F11  1  0.689088  0.197945  0.000000  1.0
  F  F12  1  0.805376  0.500866  0.500000  1.0
