# generated using pymatgen
data_LiMnO2
_symmetry_space_group_name_H-M   'P 1'
_cell_length_a   3.17312813
_cell_length_b   3.17311708
_cell_length_c   5.17156847
_cell_angle_alpha   94.47296929
_cell_angle_beta   85.52933579
_cell_angle_gamma   125.67893223
_symmetry_Int_Tables_number   1
_chemical_formula_structural   LiMnO2
_chemical_formula_sum   'Li1 Mn1 O2'
_cell_volume   42.13445780
_cell_formula_units_Z   1
loop_
 _symmetry_equiv_pos_site_id
 _symmetry_equiv_pos_as_xyz
  1  'x, y, z'
loop_
 _atom_site_type_symbol
 _atom_site_label
 _atom_site_symmetry_multiplicity
 _atom_site_fract_x
 _atom_site_fract_y
 _atom_site_fract_z
 _atom_site_occupancy
  Li  Li1  1  0.665009  0.335006  0.414774  1.0
  Mn  Mn2  1  0.989190  0.010770  0.976671  1.0
  O  O3  1  0.360255  0.639742  0.215168  1.0
  O  O4  1  0.652142  0.347781  0.784786  1.0
