# generated using pymatgen
data_CuBS2
_symmetry_space_group_name_H-M   'P 1'
_cell_length_a   5.01211842
_cell_length_b   5.01211843
_cell_length_c   5.75151592
_cell_angle_alpha   115.83121369
_cell_angle_beta   115.83121376
_cell_angle_gamma   89.99999994
_symmetry_Int_Tables_number   1
_chemical_formula_structural   CuBS2
_chemical_formula_sum   'Cu2 B2 S4'
_cell_volume   113.79510966
_cell_formula_units_Z   2
loop_
 _symmetry_equiv_pos_site_id
 _symmetry_equiv_pos_as_xyz
  1  'x, y, z'
loop_
 _atom_site_type_symbol
 _atom_site_label
 _atom_site_symmetry_multiplicity
 _atom_site_fract_x
 _atom_site_fract_y
 _atom_site_fract_z
 _atom_site_occupancy
  Cu  Cu1  1  0.250000  0.750000  0.500000  1.0
  Cu  Cu2  1  0.000000  0.000000  0.000000  1.0
  B  B3  1  0.500000  0.500000  0.000000  1.0
  B  B4  1  0.750000  0.250000  0.500000  1.0
  S  S5  1  0.820132  0.875000  0.250000  1.0
  S  S6  1  0.625000  0.179868  0.750000  1.0
  S  S7  1  0.429868  0.375000  0.250000  1.0
  S  S8  1  0.125000  0.570132  0.750000  1.0
