# generated using pymatgen
data_CuI
_symmetry_space_group_name_H-M   'P 1'
_cell_length_a   4.22605871
_cell_length_b   4.30895585
_cell_length_c   4.30895549
_cell_angle_alpha   60.00000283
_cell_angle_beta   59.34897101
_cell_angle_gamma   59.34897413
_symmetry_Int_Tables_number   1
_chemical_formula_structural   CuI
_chemical_formula_sum   'Cu1 I1'
_cell_volume   54.93133770
_cell_formula_units_Z   1
loop_
 _symmetry_equiv_pos_site_id
 _symmetry_equiv_pos_as_xyz
  1  'x, y, z'
loop_
 _atom_site_type_symbol
 _atom_site_label
 _atom_site_symmetry_multiplicity
 _atom_site_fract_x
 _atom_site_fract_y
 _atom_site_fract_z
 _atom_site_occupancy
  Cu  Cu1  1  0.839338  0.720221  0.720221  1.0
  I  I2  1  0.075662  0.974779  0.974779  1.0
