# generated using pymatgen
data_BP
_symmetry_space_group_name_H-M   'P 1'
_cell_length_a   3.20030528
_cell_length_b   3.20025702
_cell_length_c   5.29809314
_cell_angle_alpha   90.00000000
_cell_angle_beta   90.00000000
_cell_angle_gamma   120.00049881
_symmetry_Int_Tables_number   1
_chemical_formula_structural   BP
_chemical_formula_sum   'B2 P2'
_cell_volume   46.99204062
_cell_formula_units_Z   2
loop_
 _symmetry_equiv_pos_site_id
 _symmetry_equiv_pos_as_xyz
  1  'x, y, z'
loop_
 _atom_site_type_symbol
 _atom_site_label
 _atom_site_symmetry_multiplicity
 _atom_site_fract_x
 _atom_site_fract_y
 _atom_site_fract_z
 _atom_site_occupancy
  B  B1  1  0.666669  0.333339  0.500274  1.0
  B  B2  1  0.333331  0.666661  0.000274  1.0
  P  P3  1  0.666665  0.333330  0.874726  1.0
  P  P4  1  0.333335  0.666670  0.374726  1.0
