# generated using pymatgen
data_LiZnAs
_symmetry_space_group_name_H-M   'P 1'
_cell_length_a   4.22742080
_cell_length_b   4.22742080
_cell_length_c   4.22742080
_cell_angle_alpha   60.00000001
_cell_angle_beta   60.00000003
_cell_angle_gamma   60.00000000
_symmetry_Int_Tables_number   1
_chemical_formula_structural   LiZnAs
_chemical_formula_sum   'Li1 Zn1 As1'
_cell_volume   53.42092972
_cell_formula_units_Z   1
loop_
 _symmetry_equiv_pos_site_id
 _symmetry_equiv_pos_as_xyz
  1  'x, y, z'
loop_
 _atom_site_type_symbol
 _atom_site_label
 _atom_site_symmetry_multiplicity
 _atom_site_fract_x
 _atom_site_fract_y
 _atom_site_fract_z
 _atom_site_occupancy
  Li  Li1  1  0.250000  0.250000  0.250000  1.0
  Zn  Zn2  1  0.750000  0.750000  0.750000  1.0
  As  As3  1  0.000000  0.000000  0.000000  1.0
