# generated using pymatgen
data_Na4CoO3
_symmetry_space_group_name_H-M   'P 1'
_cell_length_a   5.79547934
_cell_length_b   6.26874333
_cell_length_c   8.22017736
_cell_angle_alpha   111.20128472
_cell_angle_beta   89.98758162
_cell_angle_gamma   117.55160269
_symmetry_Int_Tables_number   1
_chemical_formula_structural   Na4CoO3
_chemical_formula_sum   'Na8 Co2 O6'
_cell_volume   241.75904052
_cell_formula_units_Z   2
loop_
 _symmetry_equiv_pos_site_id
 _symmetry_equiv_pos_as_xyz
  1  'x, y, z'
loop_
 _atom_site_type_symbol
 _atom_site_label
 _atom_site_symmetry_multiplicity
 _atom_site_fract_x
 _atom_site_fract_y
 _atom_site_fract_z
 _atom_site_occupancy
  Na  Na1  1  0.926958  0.168523  0.064795  1.0
  Na  Na2  1  0.648725  0.976777  0.383587  1.0
  Na  Na3  1  0.098063  0.537514  0.476332  1.0
  Na  Na4  1  0.893545  0.369558  0.787557  1.0
  Na  Na5  1  0.241454  0.168566  0.564790  1.0
  Na  Na6  1  0.439478  0.537362  0.976261  1.0
  Na  Na7  1  0.327907  0.976638  0.883588  1.0
  Na  Na8  1  0.476063  0.369588  0.287578  1.0
  Co  Co9  1  0.007204  0.712037  0.186582  1.0
  Co  Co10  1  0.704920  0.712064  0.686595  1.0
  O  O11  1  0.685017  0.379625  0.545974  1.0
  O  O12  1  0.359438  0.616974  0.731239  1.0
  O  O13  1  0.006845  0.033450  0.768933  1.0
  O  O14  1  0.026586  0.033309  0.268819  1.0
  O  O15  1  0.257510  0.617015  0.231271  1.0
  O  O16  1  0.694567  0.379561  0.045900  1.0
