# generated using pymatgen
data_CrSi2
_symmetry_space_group_name_H-M   'P 1'
_cell_length_a   4.41048939
_cell_length_b   4.41048949
_cell_length_c   6.37076201
_cell_angle_alpha   90.00000000
_cell_angle_beta   90.00000000
_cell_angle_gamma   119.99999931
_symmetry_Int_Tables_number   1
_chemical_formula_structural   CrSi2
_chemical_formula_sum   'Cr3 Si6'
_cell_volume   107.32368836
_cell_formula_units_Z   3
loop_
 _symmetry_equiv_pos_site_id
 _symmetry_equiv_pos_as_xyz
  1  'x, y, z'
loop_
 _atom_site_type_symbol
 _atom_site_label
 _atom_site_symmetry_multiplicity
 _atom_site_fract_x
 _atom_site_fract_y
 _atom_site_fract_z
 _atom_site_occupancy
  Cr  Cr1  1  0.500000  0.000000  0.500000  1.0
  Cr  Cr2  1  0.000000  0.500000  0.166667  1.0
  Cr  Cr3  1  0.500000  0.500000  0.833333  1.0
  Si  Si4  1  0.166164  0.833836  0.833333  1.0
  Si  Si5  1  0.332328  0.166164  0.166667  1.0
  Si  Si6  1  0.833836  0.667672  0.500000  1.0
  Si  Si7  1  0.833836  0.166164  0.833333  1.0
  Si  Si8  1  0.667672  0.833836  0.166667  1.0
  Si  Si9  1  0.166164  0.332328  0.500000  1.0
