# generated using pymatgen
data_NaTi2BiO6
_symmetry_space_group_name_H-M   'P 1'
_cell_length_a   5.60509998
_cell_length_b   5.60509995
_cell_length_c   5.60510043
_cell_angle_alpha   58.92548138
_cell_angle_beta   58.92548490
_cell_angle_gamma   58.92548205
_symmetry_Int_Tables_number   1
_chemical_formula_structural   NaTi2BiO6
_chemical_formula_sum   'Na1 Ti2 Bi1 O6'
_cell_volume   121.46554546
_cell_formula_units_Z   1
loop_
 _symmetry_equiv_pos_site_id
 _symmetry_equiv_pos_as_xyz
  1  'x, y, z'
loop_
 _atom_site_type_symbol
 _atom_site_label
 _atom_site_symmetry_multiplicity
 _atom_site_fract_x
 _atom_site_fract_y
 _atom_site_fract_z
 _atom_site_occupancy
  Na  Na1  1  0.272255  0.272255  0.272255  1.0
  Ti  Ti2  1  0.017600  0.017600  0.017600  1.0
  Ti  Ti3  1  0.512737  0.512737  0.512737  1.0
  Bi  Bi4  1  0.787022  0.787022  0.787022  1.0
  O  O5  1  0.185236  0.312709  0.748394  1.0
  O  O6  1  0.312709  0.748394  0.185236  1.0
  O  O7  1  0.748394  0.185236  0.312709  1.0
  O  O8  1  0.233626  0.806896  0.689326  1.0
  O  O9  1  0.689326  0.233626  0.806896  1.0
  O  O10  1  0.806896  0.689326  0.233626  1.0
