# generated using pymatgen
data_Be4TeO7
_symmetry_space_group_name_H-M   'P 1'
_cell_length_a   5.41163850
_cell_length_b   5.41163851
_cell_length_c   5.41163851
_cell_angle_alpha   60.00000003
_cell_angle_beta   60.00000002
_cell_angle_gamma   60.00000006
_symmetry_Int_Tables_number   1
_chemical_formula_structural   Be4TeO7
_chemical_formula_sum   'Be4 Te1 O7'
_cell_volume   112.06534632
_cell_formula_units_Z   1
loop_
 _symmetry_equiv_pos_site_id
 _symmetry_equiv_pos_as_xyz
  1  'x, y, z'
loop_
 _atom_site_type_symbol
 _atom_site_label
 _atom_site_symmetry_multiplicity
 _atom_site_fract_x
 _atom_site_fract_y
 _atom_site_fract_z
 _atom_site_occupancy
  Be  Be1  1  0.627192  0.627192  0.627192  1.0
  Be  Be2  1  0.627192  0.118424  0.627192  1.0
  Be  Be3  1  0.627192  0.627192  0.118424  1.0
  Be  Be4  1  0.118424  0.627192  0.627192  1.0
  Te  Te5  1  0.000000  0.000000  0.000000  1.0
  O  O6  1  0.750000  0.750000  0.750000  1.0
  O  O7  1  0.745721  0.254279  0.254279  1.0
  O  O8  1  0.254279  0.254279  0.745721  1.0
  O  O9  1  0.745721  0.745721  0.254279  1.0
  O  O10  1  0.254279  0.745721  0.745721  1.0
  O  O11  1  0.254279  0.745721  0.254279  1.0
  O  O12  1  0.745721  0.254279  0.745721  1.0
