# generated using pymatgen
data_ZnGeP2
_symmetry_space_group_name_H-M   'P 1'
_cell_length_a   5.50407608
_cell_length_b   5.50407608
_cell_length_c   6.67400261
_cell_angle_alpha   114.35266696
_cell_angle_beta   114.35266694
_cell_angle_gamma   89.99999994
_symmetry_Int_Tables_number   1
_chemical_formula_structural   ZnGeP2
_chemical_formula_sum   'Zn2 Ge2 P4'
_cell_volume   164.24975592
_cell_formula_units_Z   2
loop_
 _symmetry_equiv_pos_site_id
 _symmetry_equiv_pos_as_xyz
  1  'x, y, z'
loop_
 _atom_site_type_symbol
 _atom_site_label
 _atom_site_symmetry_multiplicity
 _atom_site_fract_x
 _atom_site_fract_y
 _atom_site_fract_z
 _atom_site_occupancy
  Zn  Zn1  1  0.250000  0.750000  0.500000  1.0
  Zn  Zn2  1  0.000000  0.000000  0.000000  1.0
  Ge  Ge3  1  0.750000  0.250000  0.500000  1.0
  Ge  Ge4  1  0.500000  0.500000  0.000000  1.0
  P  P5  1  0.625000  0.129127  0.750000  1.0
  P  P6  1  0.870873  0.875000  0.250000  1.0
  P  P7  1  0.379127  0.375000  0.250000  1.0
  P  P8  1  0.125000  0.620873  0.750000  1.0
