# generated using pymatgen
data_CsTlF3
_symmetry_space_group_name_H-M   'P 1'
_cell_length_a   4.78205016
_cell_length_b   4.78204942
_cell_length_c   4.78204991
_cell_angle_alpha   90.08065735
_cell_angle_beta   90.08065760
_cell_angle_gamma   90.08065736
_symmetry_Int_Tables_number   1
_chemical_formula_structural   CsTlF3
_chemical_formula_sum   'Cs1 Tl1 F3'
_cell_volume   109.35559289
_cell_formula_units_Z   1
loop_
 _symmetry_equiv_pos_site_id
 _symmetry_equiv_pos_as_xyz
  1  'x, y, z'
loop_
 _atom_site_type_symbol
 _atom_site_label
 _atom_site_symmetry_multiplicity
 _atom_site_fract_x
 _atom_site_fract_y
 _atom_site_fract_z
 _atom_site_occupancy
  Cs  Cs1  1  0.053930  0.053932  0.053932  1.0
  Tl  Tl2  1  0.547210  0.547210  0.547211  1.0
  F  F3  1  0.543178  0.046504  0.543178  1.0
  F  F4  1  0.543177  0.543176  0.046507  1.0
  F  F5  1  0.046505  0.543176  0.543178  1.0
