# generated using pymatgen
data_P3N5
_symmetry_space_group_name_H-M   'P 1'
_cell_length_a   2.62908123
_cell_length_b   4.49009398
_cell_length_c   7.02789174
_cell_angle_alpha   108.62516370
_cell_angle_beta   100.78026702
_cell_angle_gamma   90.00567241
_symmetry_Int_Tables_number   1
_chemical_formula_structural   P3N5
_chemical_formula_sum   'P3 N5'
_cell_volume   77.07091018
_cell_formula_units_Z   1
loop_
 _symmetry_equiv_pos_site_id
 _symmetry_equiv_pos_as_xyz
  1  'x, y, z'
loop_
 _atom_site_type_symbol
 _atom_site_label
 _atom_site_symmetry_multiplicity
 _atom_site_fract_x
 _atom_site_fract_y
 _atom_site_fract_z
 _atom_site_occupancy
  P  P1  1  0.317364  0.858705  0.634317  1.0
  P  P2  1  0.682740  0.224403  0.365665  1.0
  P  P3  1  0.999859  0.702343  0.000017  1.0
  N  N4  1  0.226401  0.491058  0.452719  1.0
  N  N5  1  0.773759  0.038318  0.547261  1.0
  N  N6  1  0.896291  0.818813  0.792388  1.0
  N  N7  1  0.499881  0.506294  0.000036  1.0
  N  N8  1  0.103704  0.026465  0.207598  1.0
