# generated using pymatgen
data_SrHfN2
_symmetry_space_group_name_H-M   'P 1'
_cell_length_a   4.04317740
_cell_length_b   4.04317740
_cell_length_c   8.29149829
_cell_angle_alpha   90.00000000
_cell_angle_beta   90.00000000
_cell_angle_gamma   90.00000000
_symmetry_Int_Tables_number   1
_chemical_formula_structural   SrHfN2
_chemical_formula_sum   'Sr2 Hf2 N4'
_cell_volume   135.54347309
_cell_formula_units_Z   2
loop_
 _symmetry_equiv_pos_site_id
 _symmetry_equiv_pos_as_xyz
  1  'x, y, z'
loop_
 _atom_site_type_symbol
 _atom_site_label
 _atom_site_symmetry_multiplicity
 _atom_site_fract_x
 _atom_site_fract_y
 _atom_site_fract_z
 _atom_site_occupancy
  Sr  Sr1  1  0.750000  0.750000  0.141693  1.0
  Sr  Sr2  1  0.250000  0.250000  0.858307  1.0
  Hf  Hf3  1  0.750000  0.750000  0.592552  1.0
  Hf  Hf4  1  0.250000  0.250000  0.407448  1.0
  N  N5  1  0.750000  0.250000  0.500000  1.0
  N  N6  1  0.250000  0.750000  0.500000  1.0
  N  N7  1  0.750000  0.750000  0.834681  1.0
  N  N8  1  0.250000  0.250000  0.165319  1.0
