# generated using pymatgen
data_Ta2Se3
_symmetry_space_group_name_H-M   'P 1'
_cell_length_a   3.42736404
_cell_length_b   6.62862810
_cell_length_c   9.31089211
_cell_angle_alpha   104.39559387
_cell_angle_beta   90.00000000
_cell_angle_gamma   90.00000000
_symmetry_Int_Tables_number   1
_chemical_formula_structural   Ta2Se3
_chemical_formula_sum   'Ta4 Se6'
_cell_volume   204.88995729
_cell_formula_units_Z   2
loop_
 _symmetry_equiv_pos_site_id
 _symmetry_equiv_pos_as_xyz
  1  'x, y, z'
loop_
 _atom_site_type_symbol
 _atom_site_label
 _atom_site_symmetry_multiplicity
 _atom_site_fract_x
 _atom_site_fract_y
 _atom_site_fract_z
 _atom_site_occupancy
  Ta  Ta1  1  0.250000  0.113665  0.634943  1.0
  Ta  Ta2  1  0.750000  0.886335  0.365057  1.0
  Ta  Ta3  1  0.250000  0.321803  0.000800  1.0
  Ta  Ta4  1  0.750000  0.678197  0.999200  1.0
  Se  Se5  1  0.250000  0.727809  0.513086  1.0
  Se  Se6  1  0.750000  0.272191  0.486914  1.0
  Se  Se7  1  0.250000  0.972257  0.157269  1.0
  Se  Se8  1  0.750000  0.027743  0.842731  1.0
  Se  Se9  1  0.750000  0.476510  0.205622  1.0
  Se  Se10  1  0.250000  0.523490  0.794378  1.0
