# generated using pymatgen
data_Sr2TaN3
_symmetry_space_group_name_H-M   'P 1'
_cell_length_a   6.07507017
_cell_length_b   6.43657136
_cell_length_c   12.67590950
_cell_angle_alpha   89.00683526
_cell_angle_beta   87.89510449
_cell_angle_gamma   61.84111761
_symmetry_Int_Tables_number   1
_chemical_formula_structural   Sr2TaN3
_chemical_formula_sum   'Sr8 Ta4 N12'
_cell_volume   436.70113739
_cell_formula_units_Z   4
loop_
 _symmetry_equiv_pos_site_id
 _symmetry_equiv_pos_as_xyz
  1  'x, y, z'
loop_
 _atom_site_type_symbol
 _atom_site_label
 _atom_site_symmetry_multiplicity
 _atom_site_fract_x
 _atom_site_fract_y
 _atom_site_fract_z
 _atom_site_occupancy
  Sr  Sr1  1  0.546458  0.401431  0.139352  1.0
  Sr  Sr2  1  0.387148  0.768036  0.423154  1.0
  Sr  Sr3  1  0.155185  0.231964  0.923154  1.0
  Sr  Sr4  1  0.612852  0.231964  0.576846  1.0
  Sr  Sr5  1  0.453542  0.598569  0.860648  1.0
  Sr  Sr6  1  0.947889  0.598569  0.639352  1.0
  Sr  Sr7  1  0.052111  0.401431  0.360648  1.0
  Sr  Sr8  1  0.844815  0.768036  0.076846  1.0
  Ta  Ta9  1  0.763312  0.004263  0.336297  1.0
  Ta  Ta10  1  0.232426  0.004263  0.163703  1.0
  Ta  Ta11  1  0.236688  0.995737  0.663703  1.0
  Ta  Ta12  1  0.767575  0.995737  0.836297  1.0
  N  N13  1  0.501625  0.996751  0.750000  1.0
  N  N14  1  0.498375  0.003249  0.250000  1.0
  N  N15  1  0.918572  0.162855  0.750000  1.0
  N  N16  1  0.081428  0.837145  0.250000  1.0
  N  N17  1  0.332176  0.674506  0.623984  1.0
  N  N18  1  0.993318  0.674506  0.876016  1.0
  N  N19  1  0.667824  0.325494  0.376016  1.0
  N  N20  1  0.006682  0.325494  0.123984  1.0
  N  N21  1  0.615851  0.187843  0.958542  1.0
  N  N22  1  0.803694  0.812157  0.458542  1.0
  N  N23  1  0.384149  0.812157  0.041458  1.0
  N  N24  1  0.196306  0.187843  0.541458  1.0
