# generated using pymatgen
data_HoHO2
_symmetry_space_group_name_H-M   'P 1'
_cell_length_a   5.46391342
_cell_length_b   4.84852460
_cell_length_c   3.48573993
_cell_angle_alpha   90.00000000
_cell_angle_beta   90.00000000
_cell_angle_gamma   90.00000000
_symmetry_Int_Tables_number   1
_chemical_formula_structural   HoHO2
_chemical_formula_sum   'Ho2 H2 O4'
_cell_volume   92.34393859
_cell_formula_units_Z   2
loop_
 _symmetry_equiv_pos_site_id
 _symmetry_equiv_pos_as_xyz
  1  'x, y, z'
loop_
 _atom_site_type_symbol
 _atom_site_label
 _atom_site_symmetry_multiplicity
 _atom_site_fract_x
 _atom_site_fract_y
 _atom_site_fract_z
 _atom_site_occupancy
  Ho  Ho1  1  0.017468  0.276843  0.000000  1.0
  Ho  Ho2  1  0.517468  0.723157  0.500000  1.0
  H  H3  1  0.037363  0.806500  0.500000  1.0
  H  H4  1  0.537363  0.193500  0.000000  1.0
  O  O5  1  0.143549  0.978671  0.500000  1.0
  O  O6  1  0.378844  0.482306  0.000000  1.0
  O  O7  1  0.643549  0.021329  0.000000  1.0
  O  O8  1  0.878844  0.517694  0.500000  1.0
