# generated using pymatgen
data_Bi2Te2Se
_symmetry_space_group_name_H-M   'P 1'
_cell_length_a   11.04515156
_cell_length_b   11.04515156
_cell_length_c   11.04515156
_cell_angle_alpha   22.69493815
_cell_angle_beta   22.69493815
_cell_angle_gamma   22.69493817
_symmetry_Int_Tables_number   1
_chemical_formula_structural   Bi2Te2Se
_chemical_formula_sum   'Bi2 Te2 Se1'
_cell_volume   175.98037110
_cell_formula_units_Z   1
loop_
 _symmetry_equiv_pos_site_id
 _symmetry_equiv_pos_as_xyz
  1  'x, y, z'
loop_
 _atom_site_type_symbol
 _atom_site_label
 _atom_site_symmetry_multiplicity
 _atom_site_fract_x
 _atom_site_fract_y
 _atom_site_fract_z
 _atom_site_occupancy
  Bi  Bi1  1  0.609047  0.609047  0.609047  1.0
  Bi  Bi2  1  0.390952  0.390952  0.390952  1.0
  Te  Te3  1  0.220850  0.220850  0.220850  1.0
  Te  Te4  1  0.779150  0.779150  0.779150  1.0
  Se  Se5  1  0.000000  0.000000  0.000000  1.0
