# generated using pymatgen
data_MgAgF3
_symmetry_space_group_name_H-M   'P 1'
_cell_length_a   5.61441023
_cell_length_b   5.61441109
_cell_length_c   5.62783070
_cell_angle_alpha   60.07885628
_cell_angle_beta   60.07885981
_cell_angle_gamma   60.00000457
_symmetry_Int_Tables_number   1
_chemical_formula_structural   MgAgF3
_chemical_formula_sum   'Mg2 Ag2 F6'
_cell_volume   125.58883095
_cell_formula_units_Z   2
loop_
 _symmetry_equiv_pos_site_id
 _symmetry_equiv_pos_as_xyz
  1  'x, y, z'
loop_
 _atom_site_type_symbol
 _atom_site_label
 _atom_site_symmetry_multiplicity
 _atom_site_fract_x
 _atom_site_fract_y
 _atom_site_fract_z
 _atom_site_occupancy
  Mg  Mg1  1  0.005687  0.005687  0.982940  1.0
  Mg  Mg2  1  0.505687  0.505687  0.482940  1.0
  Ag  Ag3  1  0.257219  0.257219  0.228344  1.0
  Ag  Ag4  1  0.757219  0.757219  0.728344  1.0
  F  F5  1  0.694428  0.816306  0.234405  1.0
  F  F6  1  0.254860  0.694428  0.234405  1.0
  F  F7  1  0.816306  0.254860  0.234405  1.0
  F  F8  1  0.754860  0.316306  0.734405  1.0
  F  F9  1  0.316306  0.194428  0.734405  1.0
  F  F10  1  0.194428  0.754860  0.734405  1.0
