# generated using pymatgen
data_InP
_symmetry_space_group_name_H-M   'P 1'
_cell_length_a   4.21045754
_cell_length_b   4.21045754
_cell_length_c   6.90218371
_cell_angle_alpha   90.00000000
_cell_angle_beta   90.00000000
_cell_angle_gamma   119.99997608
_symmetry_Int_Tables_number   1
_chemical_formula_structural   InP
_chemical_formula_sum   'In2 P2'
_cell_volume   105.96826773
_cell_formula_units_Z   2
loop_
 _symmetry_equiv_pos_site_id
 _symmetry_equiv_pos_as_xyz
  1  'x, y, z'
loop_
 _atom_site_type_symbol
 _atom_site_label
 _atom_site_symmetry_multiplicity
 _atom_site_fract_x
 _atom_site_fract_y
 _atom_site_fract_z
 _atom_site_occupancy
  In  In1  1  0.000000  0.000000  0.000019  1.0
  In  In2  1  0.333334  0.666667  0.500019  1.0
  P  P3  1  0.000000  0.000000  0.374982  1.0
  P  P4  1  0.333334  0.666667  0.874981  1.0
