# generated using pymatgen
data_LiScO2
_symmetry_space_group_name_H-M   'P 1'
_cell_length_a   4.21514763
_cell_length_b   4.21514764
_cell_length_c   5.56395963
_cell_angle_alpha   112.25876976
_cell_angle_beta   112.25876984
_cell_angle_gamma   90.00000001
_symmetry_Int_Tables_number   1
_chemical_formula_structural   LiScO2
_chemical_formula_sum   'Li2 Sc2 O4'
_cell_volume   83.47669267
_cell_formula_units_Z   2
loop_
 _symmetry_equiv_pos_site_id
 _symmetry_equiv_pos_as_xyz
  1  'x, y, z'
loop_
 _atom_site_type_symbol
 _atom_site_label
 _atom_site_symmetry_multiplicity
 _atom_site_fract_x
 _atom_site_fract_y
 _atom_site_fract_z
 _atom_site_occupancy
  Li  Li1  1  0.875000  0.125000  0.750000  1.0
  Li  Li2  1  0.125000  0.875000  0.250000  1.0
  Sc  Sc3  1  0.625000  0.375000  0.250000  1.0
  Sc  Sc4  1  0.375000  0.625000  0.750000  1.0
  O  O5  1  0.147149  0.397149  0.294298  1.0
  O  O6  1  0.397149  0.147149  0.794298  1.0
  O  O7  1  0.602851  0.852851  0.205702  1.0
  O  O8  1  0.852851  0.602851  0.705702  1.0
