# generated using pymatgen
data_NbI3
_symmetry_space_group_name_H-M   'P 1'
_cell_length_a   7.85594029
_cell_length_b   7.85594016
_cell_length_c   6.78340440
_cell_angle_alpha   90.00000000
_cell_angle_beta   90.00000000
_cell_angle_gamma   120.00000058
_symmetry_Int_Tables_number   1
_chemical_formula_structural   NbI3
_chemical_formula_sum   'Nb2 I6'
_cell_volume   362.55565086
_cell_formula_units_Z   2
loop_
 _symmetry_equiv_pos_site_id
 _symmetry_equiv_pos_as_xyz
  1  'x, y, z'
loop_
 _atom_site_type_symbol
 _atom_site_label
 _atom_site_symmetry_multiplicity
 _atom_site_fract_x
 _atom_site_fract_y
 _atom_site_fract_z
 _atom_site_occupancy
  Nb  Nb1  1  0.000000  0.000000  0.000000  1.0
  Nb  Nb2  1  0.000000  0.000000  0.500000  1.0
  I  I3  1  0.710083  0.000000  0.750000  1.0
  I  I4  1  0.000000  0.289917  0.250000  1.0
  I  I5  1  0.289917  0.000000  0.250000  1.0
  I  I6  1  0.000000  0.710083  0.750000  1.0
  I  I7  1  0.710083  0.710083  0.250000  1.0
  I  I8  1  0.289917  0.289917  0.750000  1.0
