# generated using pymatgen
data_SiNi2
_symmetry_space_group_name_H-M   'P 1'
_cell_length_a   3.73396177
_cell_length_b   4.98297716
_cell_length_c   7.06799994
_cell_angle_alpha   90.00000000
_cell_angle_beta   90.00000000
_cell_angle_gamma   90.00000000
_symmetry_Int_Tables_number   1
_chemical_formula_structural   SiNi2
_chemical_formula_sum   'Si4 Ni8'
_cell_volume   131.50894714
_cell_formula_units_Z   4
loop_
 _symmetry_equiv_pos_site_id
 _symmetry_equiv_pos_as_xyz
  1  'x, y, z'
loop_
 _atom_site_type_symbol
 _atom_site_label
 _atom_site_symmetry_multiplicity
 _atom_site_fract_x
 _atom_site_fract_y
 _atom_site_fract_z
 _atom_site_occupancy
  Si  Si1  1  0.250000  0.789214  0.114334  1.0
  Si  Si2  1  0.750000  0.210786  0.885666  1.0
  Si  Si3  1  0.250000  0.289214  0.385666  1.0
  Si  Si4  1  0.750000  0.710786  0.614334  1.0
  Ni  Ni5  1  0.250000  0.958234  0.794834  1.0
  Ni  Ni6  1  0.750000  0.041766  0.205166  1.0
  Ni  Ni7  1  0.250000  0.458234  0.705166  1.0
  Ni  Ni8  1  0.750000  0.541766  0.294834  1.0
  Ni  Ni9  1  0.250000  0.829511  0.440006  1.0
  Ni  Ni10  1  0.750000  0.170489  0.559994  1.0
  Ni  Ni11  1  0.250000  0.329511  0.059994  1.0
  Ni  Ni12  1  0.750000  0.670489  0.940006  1.0
