# generated using pymatgen
data_KCuF3
_symmetry_space_group_name_H-M   'P 1'
_cell_length_a   7.99888603
_cell_length_b   8.28811070
_cell_length_c   8.29637445
_cell_angle_alpha   89.99825584
_cell_angle_beta   89.99652437
_cell_angle_gamma   89.99732592
_symmetry_Int_Tables_number   1
_chemical_formula_structural   KCuF3
_chemical_formula_sum   'K8 Cu8 F24'
_cell_volume   550.01355894
_cell_formula_units_Z   8
loop_
 _symmetry_equiv_pos_site_id
 _symmetry_equiv_pos_as_xyz
  1  'x, y, z'
loop_
 _atom_site_type_symbol
 _atom_site_label
 _atom_site_symmetry_multiplicity
 _atom_site_fract_x
 _atom_site_fract_y
 _atom_site_fract_z
 _atom_site_occupancy
  K  K1  1  0.249702  0.250630  0.250421  1.0
  K  K2  1  0.250388  0.749412  0.750613  1.0
  K  K3  1  0.250320  0.750514  0.250417  1.0
  K  K4  1  0.749603  0.250596  0.249380  1.0
  K  K5  1  0.750242  0.750401  0.249383  1.0
  K  K6  1  0.249763  0.249603  0.750615  1.0
  K  K7  1  0.749675  0.249487  0.749577  1.0
  K  K8  1  0.750297  0.749361  0.749591  1.0
  Cu  Cu9  1  0.499995  0.999986  0.500012  1.0
  Cu  Cu10  1  0.999987  0.000017  0.499991  1.0
  Cu  Cu11  1  0.499990  0.500015  0.499993  1.0
  Cu  Cu12  1  0.999993  0.000009  0.000009  1.0
  Cu  Cu13  1  0.500007  0.500005  0.000005  1.0
  Cu  Cu14  1  0.500031  0.999971  0.000007  1.0
  Cu  Cu15  1  0.000002  0.499991  0.000012  1.0
  Cu  Cu16  1  0.000020  0.500002  0.500006  1.0
  F  F17  1  0.497692  0.499917  0.264605  1.0
  F  F18  1  0.249984  0.000583  0.000652  1.0
  F  F19  1  0.002281  0.763901  0.000101  1.0
  F  F20  1  0.749763  0.500559  0.499355  1.0
  F  F21  1  0.497766  0.000121  0.764782  1.0
  F  F22  1  0.497845  0.264115  0.000061  1.0
  F  F23  1  0.750012  0.999420  0.999344  1.0
  F  F24  1  0.997665  0.264374  0.499971  1.0
  F  F25  1  0.750126  0.000463  0.499465  1.0
  F  F26  1  0.250236  0.499439  0.500645  1.0
  F  F27  1  0.497737  0.235254  0.500072  1.0
  F  F28  1  0.249784  0.500527  0.000608  1.0
  F  F29  1  0.002192  0.500060  0.765314  1.0
  F  F30  1  0.502262  0.764746  0.499923  1.0
  F  F31  1  0.997720  0.236102  0.999897  1.0
  F  F32  1  0.002333  0.735626  0.500029  1.0
  F  F33  1  0.249876  0.999538  0.500530  1.0
  F  F34  1  0.997759  0.000087  0.735151  1.0
  F  F35  1  0.502156  0.735881  0.999936  1.0
  F  F36  1  0.502302  0.500084  0.735394  1.0
  F  F37  1  0.750216  0.499470  0.999389  1.0
  F  F38  1  0.002241  0.999912  0.264845  1.0
  F  F39  1  0.502233  0.999879  0.235214  1.0
  F  F40  1  0.997806  0.499940  0.234683  1.0
