# generated using pymatgen
data_Co(PtO2)3
_symmetry_space_group_name_H-M   'P 1'
_cell_length_a   3.23971121
_cell_length_b   6.15484019
_cell_length_c   6.15483616
_cell_angle_alpha   109.12179874
_cell_angle_beta   90.00000000
_cell_angle_gamma   90.00000000
_symmetry_Int_Tables_number   1
_chemical_formula_structural   Co(PtO2)3
_chemical_formula_sum   'Co1 Pt3 O6'
_cell_volume   115.95531336
_cell_formula_units_Z   1
loop_
 _symmetry_equiv_pos_site_id
 _symmetry_equiv_pos_as_xyz
  1  'x, y, z'
loop_
 _atom_site_type_symbol
 _atom_site_label
 _atom_site_symmetry_multiplicity
 _atom_site_fract_x
 _atom_site_fract_y
 _atom_site_fract_z
 _atom_site_occupancy
  Co  Co1  1  0.000000  0.500000  0.500000  1.0
  Pt  Pt2  1  0.500000  0.000000  0.500000  1.0
  Pt  Pt3  1  0.500000  0.500000  0.000000  1.0
  Pt  Pt4  1  0.000000  0.000000  0.000000  1.0
  O  O5  1  0.000000  0.087305  0.341133  1.0
  O  O6  1  0.000000  0.912695  0.658867  1.0
  O  O7  1  0.000000  0.341134  0.087306  1.0
  O  O8  1  0.500000  0.353729  0.646271  1.0
  O  O9  1  0.500000  0.646271  0.353729  1.0
  O  O10  1  0.000000  0.658866  0.912694  1.0
