# generated using pymatgen
data_Cu2O3
_symmetry_space_group_name_H-M   'P 1'
_cell_length_a   8.08884535
_cell_length_b   8.08884535
_cell_length_c   8.08884535
_cell_angle_alpha   109.44181552
_cell_angle_beta   109.52258786
_cell_angle_gamma   109.44927082
_symmetry_Int_Tables_number   1
_chemical_formula_structural   Cu2O3
_chemical_formula_sum   'Cu16 O24'
_cell_volume   407.41540129
_cell_formula_units_Z   8
loop_
 _symmetry_equiv_pos_site_id
 _symmetry_equiv_pos_as_xyz
  1  'x, y, z'
loop_
 _atom_site_type_symbol
 _atom_site_label
 _atom_site_symmetry_multiplicity
 _atom_site_fract_x
 _atom_site_fract_y
 _atom_site_fract_z
 _atom_site_occupancy
  Cu  Cu1  1  0.500000  0.000000  0.000000  1.0
  Cu  Cu2  1  0.965959  0.250000  0.215959  1.0
  Cu  Cu3  1  0.784066  0.034066  0.750000  1.0
  Cu  Cu4  1  0.715934  0.465934  0.250000  1.0
  Cu  Cu5  1  0.750000  0.784102  0.034102  1.0
  Cu  Cu6  1  0.750000  0.284102  0.534102  1.0
  Cu  Cu7  1  0.465959  0.250000  0.715959  1.0
  Cu  Cu8  1  0.000000  0.500000  0.000000  1.0
  Cu  Cu9  1  0.000000  0.000000  0.500000  1.0
  Cu  Cu10  1  0.534041  0.750000  0.284041  1.0
  Cu  Cu11  1  0.500000  0.500000  0.500000  1.0
  Cu  Cu12  1  0.250000  0.715898  0.465898  1.0
  Cu  Cu13  1  0.250000  0.215898  0.965898  1.0
  Cu  Cu14  1  0.215934  0.965934  0.250000  1.0
  Cu  Cu15  1  0.284066  0.534066  0.750000  1.0
  Cu  Cu16  1  0.034041  0.750000  0.784041  1.0
  O  O17  1  0.785945  0.060677  0.518136  1.0
  O  O18  1  0.714055  0.232190  0.274732  1.0
  O  O19  1  0.268098  0.981515  0.042443  1.0
  O  O20  1  0.939072  0.481515  0.213417  1.0
  O  O21  1  0.768098  0.725656  0.286583  1.0
  O  O22  1  0.439072  0.225656  0.457557  1.0
  O  O23  1  0.042541  0.267810  0.981864  1.0
  O  O24  1  0.457459  0.439323  0.225268  1.0
  O  O25  1  0.981753  0.042275  0.267870  1.0
  O  O26  1  0.774406  0.542275  0.560523  1.0
  O  O27  1  0.518247  0.786117  0.060523  1.0
  O  O28  1  0.725594  0.286117  0.767870  1.0
  O  O29  1  0.274406  0.713883  0.232130  1.0
  O  O30  1  0.225594  0.457725  0.439477  1.0
  O  O31  1  0.481753  0.213883  0.939477  1.0
  O  O32  1  0.018247  0.957725  0.732130  1.0
  O  O33  1  0.957459  0.732190  0.018136  1.0
  O  O34  1  0.542541  0.560677  0.774732  1.0
  O  O35  1  0.560928  0.774344  0.542443  1.0
  O  O36  1  0.231902  0.274344  0.713417  1.0
  O  O37  1  0.060928  0.518485  0.786583  1.0
  O  O38  1  0.731902  0.018485  0.957557  1.0
  O  O39  1  0.214055  0.939323  0.481864  1.0
  O  O40  1  0.285945  0.767810  0.725268  1.0
