# generated using pymatgen
data_PdI2
_symmetry_space_group_name_H-M   'P 1'
_cell_length_a   7.08815795
_cell_length_b   7.11174205
_cell_length_c   8.97733928
_cell_angle_alpha   90.00000000
_cell_angle_beta   90.00000000
_cell_angle_gamma   104.31628248
_symmetry_Int_Tables_number   1
_chemical_formula_structural   PdI2
_chemical_formula_sum   'Pd4 I8'
_cell_volume   438.48664561
_cell_formula_units_Z   4
loop_
 _symmetry_equiv_pos_site_id
 _symmetry_equiv_pos_as_xyz
  1  'x, y, z'
loop_
 _atom_site_type_symbol
 _atom_site_label
 _atom_site_symmetry_multiplicity
 _atom_site_fract_x
 _atom_site_fract_y
 _atom_site_fract_z
 _atom_site_occupancy
  Pd  Pd1  1  0.777847  0.001357  0.369096  1.0
  Pd  Pd2  1  0.222153  0.498643  0.869096  1.0
  Pd  Pd3  1  0.222153  0.998643  0.630904  1.0
  Pd  Pd4  1  0.777847  0.501357  0.130904  1.0
  I  I5  1  0.986297  0.724014  0.922644  1.0
  I  I6  1  0.013703  0.775986  0.422644  1.0
  I  I7  1  0.013703  0.275986  0.077356  1.0
  I  I8  1  0.986297  0.224014  0.577356  1.0
  I  I9  1  0.434034  0.743164  0.673892  1.0
  I  I10  1  0.565966  0.756836  0.173892  1.0
  I  I11  1  0.565966  0.256836  0.326108  1.0
  I  I12  1  0.434034  0.243164  0.826108  1.0
