# generated using pymatgen
data_NbNiB
_symmetry_space_group_name_H-M   'P 1'
_cell_length_a   3.07882645
_cell_length_b   3.30145255
_cell_length_c   6.88399450
_cell_angle_alpha   103.87425977
_cell_angle_beta   90.00000000
_cell_angle_gamma   90.00000000
_symmetry_Int_Tables_number   1
_chemical_formula_structural   NbNiB
_chemical_formula_sum   'Nb2 Ni2 B2'
_cell_volume   67.93153444
_cell_formula_units_Z   2
loop_
 _symmetry_equiv_pos_site_id
 _symmetry_equiv_pos_as_xyz
  1  'x, y, z'
loop_
 _atom_site_type_symbol
 _atom_site_label
 _atom_site_symmetry_multiplicity
 _atom_site_fract_x
 _atom_site_fract_y
 _atom_site_fract_z
 _atom_site_occupancy
  Nb  Nb1  1  0.250000  0.901738  0.803476  1.0
  Nb  Nb2  1  0.750000  0.098262  0.196524  1.0
  Ni  Ni3  1  0.750000  0.295360  0.590719  1.0
  Ni  Ni4  1  0.250000  0.704640  0.409281  1.0
  B  B5  1  0.250000  0.534357  0.068714  1.0
  B  B6  1  0.750000  0.465643  0.931286  1.0
