# generated using pymatgen
data_VPd2
_symmetry_space_group_name_H-M   'P 1'
_cell_length_a   2.74625082
_cell_length_b   3.81213549
_cell_length_c   4.78501065
_cell_angle_alpha   113.47453089
_cell_angle_beta   106.67627722
_cell_angle_gamma   89.99999997
_symmetry_Int_Tables_number   1
_chemical_formula_structural   VPd2
_chemical_formula_sum   'V1 Pd2'
_cell_volume   43.64207754
_cell_formula_units_Z   1
loop_
 _symmetry_equiv_pos_site_id
 _symmetry_equiv_pos_as_xyz
  1  'x, y, z'
loop_
 _atom_site_type_symbol
 _atom_site_label
 _atom_site_symmetry_multiplicity
 _atom_site_fract_x
 _atom_site_fract_y
 _atom_site_fract_z
 _atom_site_occupancy
  V  V1  1  0.000000  0.000000  0.000000  1.0
  Pd  Pd2  1  0.661951  0.661951  0.323902  1.0
  Pd  Pd3  1  0.338049  0.338049  0.676098  1.0
