# generated using pymatgen
data_LiVF4
_symmetry_space_group_name_H-M   'P 1'
_cell_length_a   4.07900121
_cell_length_b   6.68375623
_cell_length_c   6.64613933
_cell_angle_alpha   73.74209317
_cell_angle_beta   89.78508320
_cell_angle_gamma   72.01446002
_symmetry_Int_Tables_number   1
_chemical_formula_structural   LiVF4
_chemical_formula_sum   'Li2 V2 F8'
_cell_volume   164.76832732
_cell_formula_units_Z   2
loop_
 _symmetry_equiv_pos_site_id
 _symmetry_equiv_pos_as_xyz
  1  'x, y, z'
loop_
 _atom_site_type_symbol
 _atom_site_label
 _atom_site_symmetry_multiplicity
 _atom_site_fract_x
 _atom_site_fract_y
 _atom_site_fract_z
 _atom_site_occupancy
  Li  Li1  1  0.087610  0.826443  0.203465  1.0
  Li  Li2  1  0.912585  0.176245  0.795120  1.0
  V  V3  1  0.201857  0.593420  0.797319  1.0
  V  V4  1  0.794567  0.407940  0.201559  1.0
  F  F5  1  0.069642  0.857595  0.882625  1.0
  F  F6  1  0.132963  0.725175  0.509079  1.0
  F  F7  1  0.721725  0.553726  0.857236  1.0
  F  F8  1  0.641454  0.707029  0.203490  1.0
  F  F9  1  0.352718  0.293913  0.796154  1.0
  F  F10  1  0.274385  0.447760  0.140831  1.0
  F  F11  1  0.866730  0.275167  0.489637  1.0
  F  F12  1  0.926627  0.143939  0.116095  1.0
