# generated using pymatgen
data_CeSe2
_symmetry_space_group_name_H-M   'P 1'
_cell_length_a   6.97111505
_cell_length_b   5.96503550
_cell_length_c   6.09070226
_cell_angle_alpha   59.30062218
_cell_angle_beta   89.99999282
_cell_angle_gamma   125.75576240
_symmetry_Int_Tables_number   1
_chemical_formula_structural   CeSe2
_chemical_formula_sum   'Ce2 Se4'
_cell_volume   159.76305454
_cell_formula_units_Z   2
loop_
 _symmetry_equiv_pos_site_id
 _symmetry_equiv_pos_as_xyz
  1  'x, y, z'
loop_
 _atom_site_type_symbol
 _atom_site_label
 _atom_site_symmetry_multiplicity
 _atom_site_fract_x
 _atom_site_fract_y
 _atom_site_fract_z
 _atom_site_occupancy
  Ce  Ce1  1  0.750000  0.500000  0.250000  1.0
  Ce  Ce2  1  0.250000  0.500000  0.750000  1.0
  Se  Se3  1  0.789120  0.000000  0.308577  1.0
  Se  Se4  1  0.210880  0.000000  0.691423  1.0
  Se  Se5  1  0.289120  0.000000  0.191423  1.0
  Se  Se6  1  0.710880  0.000000  0.808577  1.0
