# generated using pymatgen
data_NiBiO3
_symmetry_space_group_name_H-M   'P 1'
_cell_length_a   5.82176052
_cell_length_b   5.82175951
_cell_length_c   5.82178936
_cell_angle_alpha   56.50307660
_cell_angle_beta   56.50349013
_cell_angle_gamma   56.50388898
_symmetry_Int_Tables_number   1
_chemical_formula_structural   NiBiO3
_chemical_formula_sum   'Ni2 Bi2 O6'
_cell_volume   128.24863023
_cell_formula_units_Z   2
loop_
 _symmetry_equiv_pos_site_id
 _symmetry_equiv_pos_as_xyz
  1  'x, y, z'
loop_
 _atom_site_type_symbol
 _atom_site_label
 _atom_site_symmetry_multiplicity
 _atom_site_fract_x
 _atom_site_fract_y
 _atom_site_fract_z
 _atom_site_occupancy
  Ni  Ni1  1  0.005557  0.005539  0.005554  1.0
  Ni  Ni2  1  0.508496  0.508506  0.508519  1.0
  Bi  Bi3  1  0.302904  0.302904  0.302897  1.0
  Bi  Bi4  1  0.790899  0.790901  0.790902  1.0
  O  O5  1  0.226636  0.892320  0.611890  1.0
  O  O6  1  0.892319  0.611890  0.226630  1.0
  O  O7  1  0.611896  0.226633  0.892318  1.0
  O  O8  1  0.147549  0.354673  0.716072  1.0
  O  O9  1  0.716075  0.147554  0.354668  1.0
  O  O10  1  0.354670  0.716082  0.147546  1.0
