# generated using pymatgen
data_ScHO2
_symmetry_space_group_name_H-M   'P 1'
_cell_length_a   3.23352653
_cell_length_b   3.23353767
_cell_length_c   9.06212602
_cell_angle_alpha   90.00162691
_cell_angle_beta   89.99936461
_cell_angle_gamma   120.00070463
_symmetry_Int_Tables_number   1
_chemical_formula_structural   ScHO2
_chemical_formula_sum   'Sc2 H2 O4'
_cell_volume   82.05631287
_cell_formula_units_Z   2
loop_
 _symmetry_equiv_pos_site_id
 _symmetry_equiv_pos_as_xyz
  1  'x, y, z'
loop_
 _atom_site_type_symbol
 _atom_site_label
 _atom_site_symmetry_multiplicity
 _atom_site_fract_x
 _atom_site_fract_y
 _atom_site_fract_z
 _atom_site_occupancy
  Sc  Sc1  1  0.999994  0.000042  0.999998  1.0
  Sc  Sc2  1  0.000012  0.000023  0.500002  1.0
  H  H3  1  0.333312  0.666677  0.250000  1.0
  H  H4  1  0.666680  0.333370  0.750001  1.0
  O  O5  1  0.333319  0.666709  0.115588  1.0
  O  O6  1  0.333324  0.666651  0.384413  1.0
  O  O7  1  0.666681  0.333355  0.615582  1.0
  O  O8  1  0.666676  0.333373  0.884416  1.0
