# generated using pymatgen
data_Sr(FeO2)2
_symmetry_space_group_name_H-M   'P 1'
_cell_length_a   8.24690648
_cell_length_b   9.34846039
_cell_length_c   11.03096055
_cell_angle_alpha   90.00000000
_cell_angle_beta   90.00000000
_cell_angle_gamma   92.04906842
_symmetry_Int_Tables_number   1
_chemical_formula_structural   Sr(FeO2)2
_chemical_formula_sum   'Sr8 Fe16 O32'
_cell_volume   849.89779924
_cell_formula_units_Z   8
loop_
 _symmetry_equiv_pos_site_id
 _symmetry_equiv_pos_as_xyz
  1  'x, y, z'
loop_
 _atom_site_type_symbol
 _atom_site_label
 _atom_site_symmetry_multiplicity
 _atom_site_fract_x
 _atom_site_fract_y
 _atom_site_fract_z
 _atom_site_occupancy
  Sr  Sr1  1  0.005719  0.726793  0.609808  1.0
  Sr  Sr2  1  0.494281  0.773207  0.109808  1.0
  Sr  Sr3  1  0.994281  0.273207  0.390192  1.0
  Sr  Sr4  1  0.505719  0.226793  0.890192  1.0
  Sr  Sr5  1  0.998632  0.701569  0.153438  1.0
  Sr  Sr6  1  0.501368  0.798431  0.653438  1.0
  Sr  Sr7  1  0.001368  0.298431  0.846562  1.0
  Sr  Sr8  1  0.498632  0.201569  0.346562  1.0
  Fe  Fe9  1  0.242301  0.905620  0.387921  1.0
  Fe  Fe10  1  0.257699  0.594380  0.887921  1.0
  Fe  Fe11  1  0.757699  0.094380  0.612079  1.0
  Fe  Fe12  1  0.742301  0.405620  0.112079  1.0
  Fe  Fe13  1  0.673138  0.431108  0.612896  1.0
  Fe  Fe14  1  0.826862  0.068892  0.112896  1.0
  Fe  Fe15  1  0.326862  0.568892  0.387104  1.0
  Fe  Fe16  1  0.173138  0.931108  0.887104  1.0
  Fe  Fe17  1  0.804205  0.907687  0.363953  1.0
  Fe  Fe18  1  0.695795  0.592313  0.863953  1.0
  Fe  Fe19  1  0.195795  0.092313  0.636047  1.0
  Fe  Fe20  1  0.304205  0.407687  0.136047  1.0
  Fe  Fe21  1  0.722835  0.567782  0.360880  1.0
  Fe  Fe22  1  0.777165  0.932218  0.860880  1.0
  Fe  Fe23  1  0.277165  0.432218  0.639120  1.0
  Fe  Fe24  1  0.222835  0.067782  0.139120  1.0
  O  O25  1  0.810998  0.557511  0.519790  1.0
  O  O26  1  0.689002  0.942489  0.019790  1.0
  O  O27  1  0.189002  0.442489  0.480210  1.0
  O  O28  1  0.310998  0.057511  0.980210  1.0
  O  O29  1  0.279663  0.079501  0.476214  1.0
  O  O30  1  0.220337  0.420499  0.976214  1.0
  O  O31  1  0.720337  0.920499  0.523786  1.0
  O  O32  1  0.779663  0.579501  0.023786  1.0
  O  O33  1  0.731813  0.412112  0.783424  1.0
  O  O34  1  0.768187  0.087888  0.283424  1.0
  O  O35  1  0.268187  0.587888  0.216576  1.0
  O  O36  1  0.231813  0.912112  0.716576  1.0
  O  O37  1  0.356405  0.953609  0.240908  1.0
  O  O38  1  0.143595  0.546391  0.740908  1.0
  O  O39  1  0.643595  0.046391  0.759092  1.0
  O  O40  1  0.856405  0.453609  0.259092  1.0
  O  O41  1  0.330988  0.747996  0.469617  1.0
  O  O42  1  0.169012  0.752004  0.969617  1.0
  O  O43  1  0.669012  0.252004  0.530383  1.0
  O  O44  1  0.830988  0.247996  0.030383  1.0
  O  O45  1  0.713030  0.747169  0.275936  1.0
  O  O46  1  0.786970  0.752831  0.775936  1.0
  O  O47  1  0.286970  0.252831  0.724064  1.0
  O  O48  1  0.213030  0.247169  0.224064  1.0
  O  O49  1  0.020407  0.969480  0.135752  1.0
  O  O50  1  0.479593  0.530520  0.635752  1.0
  O  O51  1  0.979593  0.030520  0.864248  1.0
  O  O52  1  0.520407  0.469480  0.364248  1.0
  O  O53  1  0.519839  0.344018  0.110535  1.0
  O  O54  1  0.980161  0.155982  0.610535  1.0
  O  O55  1  0.480161  0.655982  0.889465  1.0
  O  O56  1  0.019839  0.844018  0.389465  1.0
