# generated using pymatgen
data_Ni2Ge
_symmetry_space_group_name_H-M   'P 1'
_cell_length_a   3.83914619
_cell_length_b   5.11002152
_cell_length_c   7.27282276
_cell_angle_alpha   90.00000000
_cell_angle_beta   90.00000000
_cell_angle_gamma   90.00000000
_symmetry_Int_Tables_number   1
_chemical_formula_structural   Ni2Ge
_chemical_formula_sum   'Ni8 Ge4'
_cell_volume   142.67910709
_cell_formula_units_Z   4
loop_
 _symmetry_equiv_pos_site_id
 _symmetry_equiv_pos_as_xyz
  1  'x, y, z'
loop_
 _atom_site_type_symbol
 _atom_site_label
 _atom_site_symmetry_multiplicity
 _atom_site_fract_x
 _atom_site_fract_y
 _atom_site_fract_z
 _atom_site_occupancy
  Ni  Ni1  1  0.750000  0.672790  0.939923  1.0
  Ni  Ni2  1  0.250000  0.327210  0.060077  1.0
  Ni  Ni3  1  0.750000  0.172790  0.560077  1.0
  Ni  Ni4  1  0.250000  0.827210  0.439923  1.0
  Ni  Ni5  1  0.750000  0.044374  0.208889  1.0
  Ni  Ni6  1  0.250000  0.955626  0.791111  1.0
  Ni  Ni7  1  0.750000  0.544374  0.291111  1.0
  Ni  Ni8  1  0.250000  0.455626  0.708889  1.0
  Ge  Ge9  1  0.750000  0.709742  0.613002  1.0
  Ge  Ge10  1  0.250000  0.290258  0.386998  1.0
  Ge  Ge11  1  0.750000  0.209742  0.886998  1.0
  Ge  Ge12  1  0.250000  0.790258  0.113002  1.0
