# generated using pymatgen
data_MnO2
_symmetry_space_group_name_H-M   'P 1'
_cell_length_a   7.17139424
_cell_length_b   7.17139436
_cell_length_c   7.17139418
_cell_angle_alpha   23.52919958
_cell_angle_beta   23.52920352
_cell_angle_gamma   23.52920390
_symmetry_Int_Tables_number   1
_chemical_formula_structural   MnO2
_chemical_formula_sum   'Mn1 O2'
_cell_volume   51.61975103
_cell_formula_units_Z   1
loop_
 _symmetry_equiv_pos_site_id
 _symmetry_equiv_pos_as_xyz
  1  'x, y, z'
loop_
 _atom_site_type_symbol
 _atom_site_label
 _atom_site_symmetry_multiplicity
 _atom_site_fract_x
 _atom_site_fract_y
 _atom_site_fract_z
 _atom_site_occupancy
  Mn  Mn1  1  0.000000  0.000000  0.000000  1.0
  O  O2  1  0.620818  0.620818  0.620818  1.0
  O  O3  1  0.379182  0.379182  0.379182  1.0
