# generated using pymatgen
data_Nd2NiIr
_symmetry_space_group_name_H-M   'P 1'
_cell_length_a   5.00590018
_cell_length_b   5.00589532
_cell_length_c   5.00589800
_cell_angle_alpha   60.00005668
_cell_angle_beta   59.99996762
_cell_angle_gamma   59.99998486
_symmetry_Int_Tables_number   1
_chemical_formula_structural   Nd2NiIr
_chemical_formula_sum   'Nd2 Ni1 Ir1'
_cell_volume   88.70150272
_cell_formula_units_Z   1
loop_
 _symmetry_equiv_pos_site_id
 _symmetry_equiv_pos_as_xyz
  1  'x, y, z'
loop_
 _atom_site_type_symbol
 _atom_site_label
 _atom_site_symmetry_multiplicity
 _atom_site_fract_x
 _atom_site_fract_y
 _atom_site_fract_z
 _atom_site_occupancy
  Nd  Nd1  1  0.000000  0.000000  0.000000  1.0
  Nd  Nd2  1  0.499999  0.499999  0.499999  1.0
  Ni  Ni3  1  0.750001  0.750001  0.750001  1.0
  Ir  Ir4  1  0.250000  0.250000  0.250000  1.0
