# generated using pymatgen
data_NbNO
_symmetry_space_group_name_H-M   'P 1'
_cell_length_a   3.90364257
_cell_length_b   6.90693783
_cell_length_c   6.84775043
_cell_angle_alpha   73.21354687
_cell_angle_beta   90.05858313
_cell_angle_gamma   73.61132149
_symmetry_Int_Tables_number   1
_chemical_formula_structural   NbNO
_chemical_formula_sum   'Nb4 N4 O4'
_cell_volume   168.89546803
_cell_formula_units_Z   4
loop_
 _symmetry_equiv_pos_site_id
 _symmetry_equiv_pos_as_xyz
  1  'x, y, z'
loop_
 _atom_site_type_symbol
 _atom_site_label
 _atom_site_symmetry_multiplicity
 _atom_site_fract_x
 _atom_site_fract_y
 _atom_site_fract_z
 _atom_site_occupancy
  Nb  Nb1  1  0.106210  0.792875  0.716503  1.0
  Nb  Nb2  1  0.186895  0.626447  0.311867  1.0
  Nb  Nb3  1  0.815625  0.372540  0.690551  1.0
  Nb  Nb4  1  0.895221  0.205683  0.286315  1.0
  N  N5  1  0.051025  0.892612  0.362659  1.0
  N  N6  1  0.259613  0.483711  0.649517  1.0
  N  N7  1  0.742633  0.515929  0.354324  1.0
  N  N8  1  0.950282  0.106246  0.640174  1.0
  O  O9  1  0.633441  0.736254  0.711353  1.0
  O  O10  1  0.140667  0.722060  0.010082  1.0
  O  O11  1  0.862759  0.279364  0.993263  1.0
  O  O12  1  0.367991  0.264573  0.293022  1.0
