# generated using pymatgen
data_Tl(Cu3S2)2
_symmetry_space_group_name_H-M   'P 1'
_cell_length_a   3.92580089
_cell_length_b   3.92580029
_cell_length_c   12.37206934
_cell_angle_alpha   99.12888304
_cell_angle_beta   99.12888163
_cell_angle_gamma   89.99999527
_symmetry_Int_Tables_number   1
_chemical_formula_structural   Tl(Cu3S2)2
_chemical_formula_sum   'Tl1 Cu6 S4'
_cell_volume   185.81558264
_cell_formula_units_Z   1
loop_
 _symmetry_equiv_pos_site_id
 _symmetry_equiv_pos_as_xyz
  1  'x, y, z'
loop_
 _atom_site_type_symbol
 _atom_site_label
 _atom_site_symmetry_multiplicity
 _atom_site_fract_x
 _atom_site_fract_y
 _atom_site_fract_z
 _atom_site_occupancy
  Tl  Tl1  1  0.000000  0.000000  0.000000  1.0
  Cu  Cu2  1  0.250000  0.750000  0.500000  1.0
  Cu  Cu3  1  0.370692  0.870692  0.741384  1.0
  Cu  Cu4  1  0.629308  0.129308  0.258616  1.0
  Cu  Cu5  1  0.129308  0.629308  0.258616  1.0
  Cu  Cu6  1  0.870692  0.370692  0.741384  1.0
  Cu  Cu7  1  0.750000  0.250000  0.500000  1.0
  S  S8  1  0.419030  0.419030  0.838061  1.0
  S  S9  1  0.194467  0.194467  0.388934  1.0
  S  S10  1  0.805533  0.805533  0.611066  1.0
  S  S11  1  0.580970  0.580970  0.161939  1.0
