# generated using pymatgen
data_LiV2N3
_symmetry_space_group_name_H-M   'P 1'
_cell_length_a   5.95298235
_cell_length_b   10.06850358
_cell_length_c   4.10993385
_cell_angle_alpha   90.00000000
_cell_angle_beta   90.00000000
_cell_angle_gamma   90.00000000
_symmetry_Int_Tables_number   1
_chemical_formula_structural   LiV2N3
_chemical_formula_sum   'Li4 V8 N12'
_cell_volume   246.33967019
_cell_formula_units_Z   4
loop_
 _symmetry_equiv_pos_site_id
 _symmetry_equiv_pos_as_xyz
  1  'x, y, z'
loop_
 _atom_site_type_symbol
 _atom_site_label
 _atom_site_symmetry_multiplicity
 _atom_site_fract_x
 _atom_site_fract_y
 _atom_site_fract_z
 _atom_site_occupancy
  Li  Li1  1  0.348342  0.000000  0.250000  1.0
  Li  Li2  1  0.651658  0.000000  0.750000  1.0
  Li  Li3  1  0.848342  0.500000  0.250000  1.0
  Li  Li4  1  0.151658  0.500000  0.750000  1.0
  V  V5  1  0.340334  0.665363  0.250000  1.0
  V  V6  1  0.340334  0.334637  0.250000  1.0
  V  V7  1  0.659666  0.334637  0.750000  1.0
  V  V8  1  0.659666  0.665363  0.750000  1.0
  V  V9  1  0.840334  0.165363  0.250000  1.0
  V  V10  1  0.840334  0.834637  0.250000  1.0
  V  V11  1  0.159666  0.834637  0.750000  1.0
  V  V12  1  0.159666  0.165363  0.750000  1.0
  N  N13  1  0.340783  0.677582  0.750000  1.0
  N  N14  1  0.340783  0.322418  0.750000  1.0
  N  N15  1  0.659217  0.322418  0.250000  1.0
  N  N16  1  0.659217  0.677582  0.250000  1.0
  N  N17  1  0.287479  0.000000  0.750000  1.0
  N  N18  1  0.712521  0.000000  0.250000  1.0
  N  N19  1  0.840783  0.177582  0.750000  1.0
  N  N20  1  0.840783  0.822418  0.750000  1.0
  N  N21  1  0.159217  0.822418  0.250000  1.0
  N  N22  1  0.159217  0.177582  0.250000  1.0
  N  N23  1  0.787479  0.500000  0.750000  1.0
  N  N24  1  0.212521  0.500000  0.250000  1.0
