# generated using pymatgen
data_BW
_symmetry_space_group_name_H-M   'P 1'
_cell_length_a   3.10984888
_cell_length_b   3.18286259
_cell_length_c   4.55085584
_cell_angle_alpha   110.46891839
_cell_angle_beta   90.00000000
_cell_angle_gamma   90.00000000
_symmetry_Int_Tables_number   1
_chemical_formula_structural   BW
_chemical_formula_sum   'B2 W2'
_cell_volume   42.20130604
_cell_formula_units_Z   2
loop_
 _symmetry_equiv_pos_site_id
 _symmetry_equiv_pos_as_xyz
  1  'x, y, z'
loop_
 _atom_site_type_symbol
 _atom_site_label
 _atom_site_symmetry_multiplicity
 _atom_site_fract_x
 _atom_site_fract_y
 _atom_site_fract_z
 _atom_site_occupancy
  B  B1  1  0.750000  0.439399  0.878799  1.0
  B  B2  1  0.250000  0.560600  0.121201  1.0
  W  W3  1  0.750000  0.144711  0.289422  1.0
  W  W4  1  0.250000  0.855289  0.710578  1.0
