# generated using pymatgen
data_SbO2
_symmetry_space_group_name_H-M   'P 1'
_cell_length_a   4.90657757
_cell_length_b   5.55192937
_cell_length_c   11.93748402
_cell_angle_alpha   90.00000000
_cell_angle_beta   90.00000000
_cell_angle_gamma   90.00000000
_symmetry_Int_Tables_number   1
_chemical_formula_structural   SbO2
_chemical_formula_sum   'Sb8 O16'
_cell_volume   325.18866934
_cell_formula_units_Z   8
loop_
 _symmetry_equiv_pos_site_id
 _symmetry_equiv_pos_as_xyz
  1  'x, y, z'
loop_
 _atom_site_type_symbol
 _atom_site_label
 _atom_site_symmetry_multiplicity
 _atom_site_fract_x
 _atom_site_fract_y
 _atom_site_fract_z
 _atom_site_occupancy
  Sb  Sb1  1  0.462491  0.480812  0.501576  1.0
  Sb  Sb2  1  0.537509  0.519188  0.001576  1.0
  Sb  Sb3  1  0.037509  0.980812  0.501576  1.0
  Sb  Sb4  1  0.962491  0.019188  0.001576  1.0
  Sb  Sb5  1  0.501117  0.867012  0.252917  1.0
  Sb  Sb6  1  0.498883  0.132988  0.752917  1.0
  Sb  Sb7  1  0.998883  0.367012  0.252917  1.0
  Sb  Sb8  1  0.001117  0.632988  0.752917  1.0
  O  O9  1  0.666253  0.844306  0.095398  1.0
  O  O10  1  0.333747  0.155694  0.595398  1.0
  O  O11  1  0.833747  0.344306  0.095398  1.0
  O  O12  1  0.166253  0.655694  0.595398  1.0
  O  O13  1  0.294756  0.579615  0.193353  1.0
  O  O14  1  0.705244  0.420385  0.693353  1.0
  O  O15  1  0.205244  0.079615  0.193353  1.0
  O  O16  1  0.794756  0.920385  0.693353  1.0
  O  O17  1  0.839269  0.681801  0.907508  1.0
  O  O18  1  0.160731  0.318199  0.407508  1.0
  O  O19  1  0.660731  0.181801  0.907508  1.0
  O  O20  1  0.339269  0.818199  0.407508  1.0
  O  O21  1  0.288769  0.856302  0.812649  1.0
  O  O22  1  0.711231  0.143698  0.312649  1.0
  O  O23  1  0.211231  0.356302  0.812649  1.0
  O  O24  1  0.788769  0.643698  0.312649  1.0
