# generated using pymatgen
data_Ca3Fe2O7
_symmetry_space_group_name_H-M   'P 1'
_cell_length_a   5.42617897
_cell_length_b   5.40861764
_cell_length_c   10.10412183
_cell_angle_alpha   105.52412091
_cell_angle_beta   90.00000000
_cell_angle_gamma   90.00000000
_symmetry_Int_Tables_number   1
_chemical_formula_structural   Ca3Fe2O7
_chemical_formula_sum   'Ca6 Fe4 O14'
_cell_volume   285.71874835
_cell_formula_units_Z   2
loop_
 _symmetry_equiv_pos_site_id
 _symmetry_equiv_pos_as_xyz
  1  'x, y, z'
loop_
 _atom_site_type_symbol
 _atom_site_label
 _atom_site_symmetry_multiplicity
 _atom_site_fract_x
 _atom_site_fract_y
 _atom_site_fract_z
 _atom_site_occupancy
  Ca  Ca1  1  0.710759  0.756424  0.000000  1.0
  Ca  Ca2  1  0.210759  0.243576  0.000000  1.0
  Ca  Ca3  1  0.784898  0.574147  0.627300  1.0
  Ca  Ca4  1  0.284898  0.425853  0.372700  1.0
  Ca  Ca5  1  0.784898  0.946846  0.372700  1.0
  Ca  Ca6  1  0.284898  0.053154  0.627300  1.0
  Fe  Fe7  1  0.750821  0.349857  0.197834  1.0
  Fe  Fe8  1  0.250821  0.650143  0.802166  1.0
  Fe  Fe9  1  0.250821  0.847977  0.197834  1.0
  Fe  Fe10  1  0.750821  0.152023  0.802166  1.0
  O  O11  1  0.737394  0.998115  0.604326  1.0
  O  O12  1  0.237394  0.001885  0.395674  1.0
  O  O13  1  0.237394  0.606211  0.604326  1.0
  O  O14  1  0.737394  0.393789  0.395674  1.0
  O  O15  1  0.034687  0.354608  0.778711  1.0
  O  O16  1  0.534687  0.645392  0.221289  1.0
  O  O17  1  0.534687  0.424103  0.778711  1.0
  O  O18  1  0.034687  0.575897  0.221289  1.0
  O  O19  1  0.964862  0.881106  0.831681  1.0
  O  O20  1  0.464862  0.118894  0.168319  1.0
  O  O21  1  0.763918  0.318543  0.000000  1.0
  O  O22  1  0.263918  0.681457  0.000000  1.0
  O  O23  1  0.964862  0.049426  0.168319  1.0
  O  O24  1  0.464862  0.950574  0.831681  1.0
