# generated using pymatgen
data_K2Cu(ClF)2
_symmetry_space_group_name_H-M   'P 1'
_cell_length_a   6.33820150
_cell_length_b   6.33734188
_cell_length_c   8.11328518
_cell_angle_alpha   90.00000000
_cell_angle_beta   112.99222785
_cell_angle_gamma   90.00000000
_symmetry_Int_Tables_number   1
_chemical_formula_structural   K2Cu(ClF)2
_chemical_formula_sum   'K4 Cu2 Cl4 F4'
_cell_volume   299.99982728
_cell_formula_units_Z   2
loop_
 _symmetry_equiv_pos_site_id
 _symmetry_equiv_pos_as_xyz
  1  'x, y, z'
loop_
 _atom_site_type_symbol
 _atom_site_label
 _atom_site_symmetry_multiplicity
 _atom_site_fract_x
 _atom_site_fract_y
 _atom_site_fract_z
 _atom_site_occupancy
  K  K1  1  0.123404  0.500000  0.246808  1.0
  K  K2  1  0.623404  0.000000  0.246808  1.0
  K  K3  1  0.876596  0.500000  0.753192  1.0
  K  K4  1  0.376596  0.000000  0.753192  1.0
  Cu  Cu5  1  0.000000  0.000000  0.000000  1.0
  Cu  Cu6  1  0.500000  0.500000  0.000000  1.0
  Cl  Cl7  1  0.156157  0.000000  0.312313  1.0
  Cl  Cl8  1  0.843843  0.000000  0.687687  1.0
  Cl  Cl9  1  0.656157  0.500000  0.312313  1.0
  Cl  Cl10  1  0.343843  0.500000  0.687687  1.0
  F  F11  1  0.785835  0.214197  0.000000  1.0
  F  F12  1  0.214165  0.785803  0.000000  1.0
  F  F13  1  0.285835  0.285803  0.000000  1.0
  F  F14  1  0.714165  0.714197  0.000000  1.0
