# generated using pymatgen
data_LaB4
_symmetry_space_group_name_H-M   'P 1'
_cell_length_a   4.18269541
_cell_length_b   7.31065593
_cell_length_c   7.31065593
_cell_angle_alpha   90.00000000
_cell_angle_beta   90.00000000
_cell_angle_gamma   90.00000000
_symmetry_Int_Tables_number   1
_chemical_formula_structural   LaB4
_chemical_formula_sum   'La4 B16'
_cell_volume   223.54704278
_cell_formula_units_Z   4
loop_
 _symmetry_equiv_pos_site_id
 _symmetry_equiv_pos_as_xyz
  1  'x, y, z'
loop_
 _atom_site_type_symbol
 _atom_site_label
 _atom_site_symmetry_multiplicity
 _atom_site_fract_x
 _atom_site_fract_y
 _atom_site_fract_z
 _atom_site_occupancy
  La  La1  1  0.000000  0.683955  0.183955  1.0
  La  La2  1  0.000000  0.816045  0.683955  1.0
  La  La3  1  0.000000  0.183955  0.316045  1.0
  La  La4  1  0.000000  0.316045  0.816045  1.0
  B  B5  1  0.500000  0.460902  0.326478  1.0
  B  B6  1  0.500000  0.539098  0.673522  1.0
  B  B7  1  0.500000  0.326478  0.539098  1.0
  B  B8  1  0.500000  0.673522  0.460902  1.0
  B  B9  1  0.205832  0.000000  0.000000  1.0
  B  B10  1  0.794168  0.500000  0.500000  1.0
  B  B11  1  0.794168  0.000000  0.000000  1.0
  B  B12  1  0.205832  0.500000  0.500000  1.0
  B  B13  1  0.500000  0.088866  0.588866  1.0
  B  B14  1  0.500000  0.411134  0.088866  1.0
  B  B15  1  0.500000  0.588866  0.911134  1.0
  B  B16  1  0.500000  0.911134  0.411134  1.0
  B  B17  1  0.500000  0.173522  0.039098  1.0
  B  B18  1  0.500000  0.960902  0.173522  1.0
  B  B19  1  0.500000  0.039098  0.826478  1.0
  B  B20  1  0.500000  0.826478  0.960902  1.0
