# generated using pymatgen
data_CuP2
_symmetry_space_group_name_H-M   'P 1'
_cell_length_a   4.82006694
_cell_length_b   5.80453105
_cell_length_c   7.53230407
_cell_angle_alpha   112.64072084
_cell_angle_beta   90.00000000
_cell_angle_gamma   90.00000000
_symmetry_Int_Tables_number   1
_chemical_formula_structural   CuP2
_chemical_formula_sum   'Cu4 P8'
_cell_volume   194.50019598
_cell_formula_units_Z   4
loop_
 _symmetry_equiv_pos_site_id
 _symmetry_equiv_pos_as_xyz
  1  'x, y, z'
loop_
 _atom_site_type_symbol
 _atom_site_label
 _atom_site_symmetry_multiplicity
 _atom_site_fract_x
 _atom_site_fract_y
 _atom_site_fract_z
 _atom_site_occupancy
  Cu  Cu1  1  0.037605  0.772130  0.918173  1.0
  Cu  Cu2  1  0.537605  0.727870  0.581827  1.0
  Cu  Cu3  1  0.962395  0.227870  0.081827  1.0
  Cu  Cu4  1  0.462395  0.272130  0.418173  1.0
  P  P5  1  0.384366  0.673880  0.080168  1.0
  P  P6  1  0.884366  0.826120  0.419832  1.0
  P  P7  1  0.615634  0.326120  0.919832  1.0
  P  P8  1  0.115634  0.173880  0.580168  1.0
  P  P9  1  0.777563  0.452699  0.698736  1.0
  P  P10  1  0.277563  0.047301  0.801264  1.0
  P  P11  1  0.222437  0.547301  0.301264  1.0
  P  P12  1  0.722437  0.952699  0.198736  1.0
