# generated using pymatgen
data_KO3
_symmetry_space_group_name_H-M   'P 1'
_cell_length_a   4.14842125
_cell_length_b   4.81919138
_cell_length_c   4.81919152
_cell_angle_alpha   75.26033890
_cell_angle_beta   64.50666181
_cell_angle_gamma   64.50665665
_symmetry_Int_Tables_number   1
_chemical_formula_structural   KO3
_chemical_formula_sum   'K1 O3'
_cell_volume   78.21404134
_cell_formula_units_Z   1
loop_
 _symmetry_equiv_pos_site_id
 _symmetry_equiv_pos_as_xyz
  1  'x, y, z'
loop_
 _atom_site_type_symbol
 _atom_site_label
 _atom_site_symmetry_multiplicity
 _atom_site_fract_x
 _atom_site_fract_y
 _atom_site_fract_z
 _atom_site_occupancy
  K  K1  1  0.510501  0.489499  0.489499  1.0
  O  O2  1  0.916320  0.888676  0.278684  1.0
  O  O3  1  0.032459  0.967541  0.967541  1.0
  O  O4  1  0.916320  0.278684  0.888676  1.0
