# generated using pymatgen
data_Al3Fe2Si3
_symmetry_space_group_name_H-M   'P 1'
_cell_length_a   7.13622484
_cell_length_b   8.35758510
_cell_length_c   14.39935526
_cell_angle_alpha   90.00000000
_cell_angle_beta   93.85330234
_cell_angle_gamma   90.00000000
_symmetry_Int_Tables_number   1
_chemical_formula_structural   Al3Fe2Si3
_chemical_formula_sum   'Al24 Fe16 Si24'
_cell_volume   856.85925831
_cell_formula_units_Z   8
loop_
 _symmetry_equiv_pos_site_id
 _symmetry_equiv_pos_as_xyz
  1  'x, y, z'
loop_
 _atom_site_type_symbol
 _atom_site_label
 _atom_site_symmetry_multiplicity
 _atom_site_fract_x
 _atom_site_fract_y
 _atom_site_fract_z
 _atom_site_occupancy
  Al  Al1  1  0.797469  0.877848  0.722942  1.0
  Al  Al2  1  0.702531  0.377848  0.777058  1.0
  Al  Al3  1  0.202531  0.122152  0.277058  1.0
  Al  Al4  1  0.297469  0.622152  0.222942  1.0
  Al  Al5  1  0.051209  0.376755  0.675237  1.0
  Al  Al6  1  0.448791  0.876755  0.824763  1.0
  Al  Al7  1  0.948791  0.623245  0.324763  1.0
  Al  Al8  1  0.551209  0.123245  0.175237  1.0
  Al  Al9  1  0.953196  0.886449  0.056059  1.0
  Al  Al10  1  0.546804  0.386449  0.443941  1.0
  Al  Al11  1  0.046804  0.113551  0.943941  1.0
  Al  Al12  1  0.453196  0.613551  0.556059  1.0
  Al  Al13  1  0.949434  0.362835  0.050228  1.0
  Al  Al14  1  0.550566  0.862835  0.449772  1.0
  Al  Al15  1  0.050566  0.637165  0.949772  1.0
  Al  Al16  1  0.449434  0.137165  0.550228  1.0
  Al  Al17  1  0.688089  0.794937  0.177799  1.0
  Al  Al18  1  0.811911  0.294937  0.322201  1.0
  Al  Al19  1  0.311911  0.205063  0.822201  1.0
  Al  Al20  1  0.188089  0.705063  0.677799  1.0
  Al  Al21  1  0.676410  0.452852  0.168791  1.0
  Al  Al22  1  0.823590  0.952852  0.331209  1.0
  Al  Al23  1  0.323590  0.547148  0.831209  1.0
  Al  Al24  1  0.176410  0.047148  0.668791  1.0
  Fe  Fe25  1  0.265491  0.876585  0.969812  1.0
  Fe  Fe26  1  0.234509  0.376585  0.530188  1.0
  Fe  Fe27  1  0.734509  0.123415  0.030188  1.0
  Fe  Fe28  1  0.765491  0.623415  0.469812  1.0
  Fe  Fe29  1  0.263154  0.373469  0.965357  1.0
  Fe  Fe30  1  0.236846  0.873469  0.534643  1.0
  Fe  Fe31  1  0.736846  0.626531  0.034643  1.0
  Fe  Fe32  1  0.763154  0.126531  0.465357  1.0
  Fe  Fe33  1  0.053985  0.863136  0.228861  1.0
  Fe  Fe34  1  0.446015  0.363136  0.271139  1.0
  Fe  Fe35  1  0.946015  0.136864  0.771139  1.0
  Fe  Fe36  1  0.553985  0.636864  0.728861  1.0
  Fe  Fe37  1  0.055439  0.382849  0.227139  1.0
  Fe  Fe38  1  0.444561  0.882849  0.272861  1.0
  Fe  Fe39  1  0.944561  0.617151  0.772861  1.0
  Fe  Fe40  1  0.555439  0.117151  0.727139  1.0
  Si  Si41  1  0.894503  0.878857  0.533589  1.0
  Si  Si42  1  0.605497  0.378857  0.966411  1.0
  Si  Si43  1  0.105497  0.121143  0.466411  1.0
  Si  Si44  1  0.394503  0.621143  0.033589  1.0
  Si  Si45  1  0.899743  0.372386  0.510781  1.0
  Si  Si46  1  0.600257  0.872386  0.989219  1.0
  Si  Si47  1  0.100257  0.627614  0.489219  1.0
  Si  Si48  1  0.399743  0.127614  0.010781  1.0
  Si  Si49  1  0.295449  0.889020  0.126768  1.0
  Si  Si50  1  0.204551  0.389020  0.373232  1.0
  Si  Si51  1  0.704551  0.110980  0.873232  1.0
  Si  Si52  1  0.795449  0.610980  0.626768  1.0
  Si  Si53  1  0.293744  0.354369  0.124218  1.0
  Si  Si54  1  0.206256  0.854369  0.375782  1.0
  Si  Si55  1  0.706256  0.645631  0.875782  1.0
  Si  Si56  1  0.793744  0.145631  0.624218  1.0
  Si  Si57  1  0.467986  0.878215  0.651551  1.0
  Si  Si58  1  0.032014  0.378215  0.848449  1.0
  Si  Si59  1  0.532014  0.121785  0.348449  1.0
  Si  Si60  1  0.967986  0.621785  0.151551  1.0
  Si  Si61  1  0.409587  0.375251  0.672396  1.0
  Si  Si62  1  0.090413  0.875251  0.827604  1.0
  Si  Si63  1  0.590413  0.624749  0.327604  1.0
  Si  Si64  1  0.909587  0.124749  0.172396  1.0
