# generated using pymatgen
data_Mn2BeO4
_symmetry_space_group_name_H-M   'P 1'
_cell_length_a   10.12300227
_cell_length_b   5.95877658
_cell_length_c   4.63443549
_cell_angle_alpha   90.00086675
_cell_angle_beta   90.00631339
_cell_angle_gamma   89.99210226
_symmetry_Int_Tables_number   1
_chemical_formula_structural   Mn2BeO4
_chemical_formula_sum   'Mn8 Be4 O16'
_cell_volume   279.55242947
_cell_formula_units_Z   4
loop_
 _symmetry_equiv_pos_site_id
 _symmetry_equiv_pos_as_xyz
  1  'x, y, z'
loop_
 _atom_site_type_symbol
 _atom_site_label
 _atom_site_symmetry_multiplicity
 _atom_site_fract_x
 _atom_site_fract_y
 _atom_site_fract_z
 _atom_site_occupancy
  Mn  Mn1  1  0.000032  0.999981  0.000013  1.0
  Mn  Mn2  1  0.000023  0.499973  0.999996  1.0
  Mn  Mn3  1  0.225118  0.750000  0.485285  1.0
  Mn  Mn4  1  0.274895  0.250033  0.985157  1.0
  Mn  Mn5  1  0.499966  0.000014  0.500001  1.0
  Mn  Mn6  1  0.499967  0.500013  0.499981  1.0
  Mn  Mn7  1  0.725122  0.749985  0.014821  1.0
  Mn  Mn8  1  0.774844  0.249999  0.514653  1.0
  Be  Be9  1  0.087773  0.250034  0.422806  1.0
  Be  Be10  1  0.412223  0.749975  0.922800  1.0
  Be  Be11  1  0.587796  0.250034  0.077180  1.0
  Be  Be12  1  0.912216  0.749969  0.577213  1.0
  O  O13  1  0.062735  0.749941  0.745369  1.0
  O  O14  1  0.086582  0.250094  0.767974  1.0
  O  O15  1  0.153666  0.028122  0.257322  1.0
  O  O16  1  0.153646  0.471904  0.257281  1.0
  O  O17  1  0.346336  0.528126  0.757201  1.0
  O  O18  1  0.346327  0.971868  0.757252  1.0
  O  O19  1  0.413413  0.749899  0.267922  1.0
  O  O20  1  0.437280  0.250054  0.245229  1.0
  O  O21  1  0.562681  0.749961  0.754738  1.0
  O  O22  1  0.586536  0.250125  0.732053  1.0
  O  O23  1  0.653630  0.028130  0.242804  1.0
  O  O24  1  0.653624  0.471900  0.242837  1.0
  O  O25  1  0.846398  0.528049  0.742733  1.0
  O  O26  1  0.846395  0.971915  0.742709  1.0
  O  O27  1  0.913478  0.749883  0.232037  1.0
  O  O28  1  0.937300  0.250021  0.254632  1.0
