# generated using pymatgen
data_Si12Ni31
_symmetry_space_group_name_H-M   'P 1'
_cell_length_a   6.64891396
_cell_length_b   6.64973219
_cell_length_c   12.27913627
_cell_angle_alpha   90.00000000
_cell_angle_beta   90.03945762
_cell_angle_gamma   120.00406697
_symmetry_Int_Tables_number   1
_chemical_formula_structural   Si12Ni31
_chemical_formula_sum   'Si12 Ni31'
_cell_volume   470.14885408
_cell_formula_units_Z   1
loop_
 _symmetry_equiv_pos_site_id
 _symmetry_equiv_pos_as_xyz
  1  'x, y, z'
loop_
 _atom_site_type_symbol
 _atom_site_label
 _atom_site_symmetry_multiplicity
 _atom_site_fract_x
 _atom_site_fract_y
 _atom_site_fract_z
 _atom_site_occupancy
  Si  Si1  1  0.000010  0.000020  0.290406  1.0
  Si  Si2  1  0.999990  0.000010  0.709594  1.0
  Si  Si3  1  0.333336  0.666715  0.275397  1.0
  Si  Si4  1  0.666664  0.333379  0.724603  1.0
  Si  Si5  1  0.333337  0.666556  0.773279  1.0
  Si  Si6  1  0.666663  0.333219  0.226721  1.0
  Si  Si7  1  0.319247  0.319345  0.999969  1.0
  Si  Si8  1  0.680753  0.000098  0.000031  1.0
  Si  Si9  1  0.000000  0.680603  0.000000  1.0
  Si  Si10  1  0.649462  0.649520  0.500028  1.0
  Si  Si11  1  0.350538  0.000058  0.499972  1.0
  Si  Si12  1  0.000000  0.350538  0.500000  1.0
  Ni  Ni13  1  0.000000  0.000163  0.500000  1.0
  Ni  Ni14  1  0.999927  0.999929  0.096541  1.0
  Ni  Ni15  1  0.000073  0.000001  0.903459  1.0
  Ni  Ni16  1  0.333314  0.666705  0.072851  1.0
  Ni  Ni17  1  0.666686  0.333391  0.927149  1.0
  Ni  Ni18  1  0.333239  0.666537  0.566846  1.0
  Ni  Ni19  1  0.666761  0.333298  0.433154  1.0
  Ni  Ni20  1  0.667051  0.587344  0.095385  1.0
  Ni  Ni21  1  0.412481  0.079661  0.095372  1.0
  Ni  Ni22  1  0.920268  0.332978  0.095370  1.0
  Ni  Ni23  1  0.332949  0.920294  0.904615  1.0
  Ni  Ni24  1  0.079732  0.412710  0.904630  1.0
  Ni  Ni25  1  0.587519  0.667180  0.904628  1.0
  Ni  Ni26  1  0.298055  0.335450  0.197856  1.0
  Ni  Ni27  1  0.664579  0.962500  0.197811  1.0
  Ni  Ni28  1  0.037416  0.701889  0.197791  1.0
  Ni  Ni29  1  0.701945  0.037395  0.802144  1.0
  Ni  Ni30  1  0.962584  0.664473  0.802209  1.0
  Ni  Ni31  1  0.335421  0.297920  0.802189  1.0
  Ni  Ni32  1  0.678007  0.642996  0.305469  1.0
  Ni  Ni33  1  0.356898  0.034886  0.305431  1.0
  Ni  Ni34  1  0.965136  0.322072  0.305436  1.0
  Ni  Ni35  1  0.321993  0.964989  0.694531  1.0
  Ni  Ni36  1  0.034864  0.356936  0.694564  1.0
  Ni  Ni37  1  0.643102  0.677989  0.694569  1.0
  Ni  Ni38  1  0.308720  0.371806  0.403951  1.0
  Ni  Ni39  1  0.628280  0.936985  0.403869  1.0
  Ni  Ni40  1  0.063018  0.691346  0.403847  1.0
  Ni  Ni41  1  0.691280  0.063087  0.596049  1.0
  Ni  Ni42  1  0.936982  0.628328  0.596153  1.0
  Ni  Ni43  1  0.371720  0.308705  0.596131  1.0
