# generated using pymatgen
data_LiAuI4
_symmetry_space_group_name_H-M   'P 1'
_cell_length_a   4.46989299
_cell_length_b   7.21159751
_cell_length_c   13.50046950
_cell_angle_alpha   91.98203024
_cell_angle_beta   90.00000000
_cell_angle_gamma   90.00000000
_symmetry_Int_Tables_number   1
_chemical_formula_structural   LiAuI4
_chemical_formula_sum   'Li2 Au2 I8'
_cell_volume   434.92820486
_cell_formula_units_Z   2
loop_
 _symmetry_equiv_pos_site_id
 _symmetry_equiv_pos_as_xyz
  1  'x, y, z'
loop_
 _atom_site_type_symbol
 _atom_site_label
 _atom_site_symmetry_multiplicity
 _atom_site_fract_x
 _atom_site_fract_y
 _atom_site_fract_z
 _atom_site_occupancy
  Li  Li1  1  0.000000  0.000000  0.500000  1.0
  Li  Li2  1  0.500000  0.500000  0.000000  1.0
  Au  Au3  1  0.500000  0.500000  0.500000  1.0
  Au  Au4  1  0.000000  0.000000  0.000000  1.0
  I  I5  1  0.992673  0.314189  0.111972  1.0
  I  I6  1  0.492673  0.185811  0.388028  1.0
  I  I7  1  0.007327  0.685811  0.888028  1.0
  I  I8  1  0.507327  0.814189  0.611972  1.0
  I  I9  1  0.328440  0.830909  0.138145  1.0
  I  I10  1  0.828440  0.669091  0.361855  1.0
  I  I11  1  0.671560  0.169091  0.861855  1.0
  I  I12  1  0.171560  0.330909  0.638145  1.0
