# generated using pymatgen
data_Y3Fe5O12
_symmetry_space_group_name_H-M   'P 1'
_cell_length_a   10.87709041
_cell_length_b   10.87709009
_cell_length_c   10.87708999
_cell_angle_alpha   109.47008972
_cell_angle_beta   109.47008910
_cell_angle_gamma   109.47008496
_symmetry_Int_Tables_number   1
_chemical_formula_structural   Y3Fe5O12
_chemical_formula_sum   'Y12 Fe20 O48'
_cell_volume   990.68253487
_cell_formula_units_Z   4
loop_
 _symmetry_equiv_pos_site_id
 _symmetry_equiv_pos_as_xyz
  1  'x, y, z'
loop_
 _atom_site_type_symbol
 _atom_site_label
 _atom_site_symmetry_multiplicity
 _atom_site_fract_x
 _atom_site_fract_y
 _atom_site_fract_z
 _atom_site_occupancy
  Y  Y1  1  0.249928  0.374963  0.124927  1.0
  Y  Y2  1  0.625048  0.250025  0.875002  1.0
  Y  Y3  1  0.750072  0.625037  0.875073  1.0
  Y  Y4  1  0.749975  0.124998  0.374952  1.0
  Y  Y5  1  0.875073  0.750072  0.625037  1.0
  Y  Y6  1  0.250025  0.875002  0.625048  1.0
  Y  Y7  1  0.625037  0.875073  0.750072  1.0
  Y  Y8  1  0.124998  0.374952  0.749975  1.0
  Y  Y9  1  0.374952  0.749975  0.124998  1.0
  Y  Y10  1  0.374963  0.124927  0.249928  1.0
  Y  Y11  1  0.875002  0.625048  0.250025  1.0
  Y  Y12  1  0.124927  0.249928  0.374963  1.0
  Fe  Fe13  1  0.875002  0.250035  0.125029  1.0
  Fe  Fe14  1  0.250236  0.625175  0.375078  1.0
  Fe  Fe15  1  0.000000  0.500000  0.500000  1.0
  Fe  Fe16  1  0.250035  0.125029  0.875002  1.0
  Fe  Fe17  1  0.500000  0.000000  0.000000  1.0
  Fe  Fe18  1  0.625175  0.375078  0.250236  1.0
  Fe  Fe19  1  0.500000  0.000000  0.500000  1.0
  Fe  Fe20  1  0.374825  0.624922  0.749764  1.0
  Fe  Fe21  1  0.624922  0.749764  0.374825  1.0
  Fe  Fe22  1  0.874971  0.124998  0.749965  1.0
  Fe  Fe23  1  0.000000  0.500000  0.000000  1.0
  Fe  Fe24  1  0.125029  0.875002  0.250035  1.0
  Fe  Fe25  1  0.000000  0.000000  0.000000  1.0
  Fe  Fe26  1  0.749965  0.874971  0.124998  1.0
  Fe  Fe27  1  0.375078  0.250236  0.625175  1.0
  Fe  Fe28  1  0.000000  0.000000  0.500000  1.0
  Fe  Fe29  1  0.124998  0.749965  0.874971  1.0
  Fe  Fe30  1  0.749764  0.374825  0.624922  1.0
  Fe  Fe31  1  0.500000  0.500000  0.500000  1.0
  Fe  Fe32  1  0.500000  0.500000  0.000000  1.0
  O  O33  1  0.625067  0.416922  0.094090  1.0
  O  O34  1  0.468561  0.593688  0.176900  1.0
  O  O35  1  0.906185  0.031233  0.322911  1.0
  O  O36  1  0.593688  0.176900  0.468561  1.0
  O  O37  1  0.531065  0.625225  0.708130  1.0
  O  O38  1  0.083226  0.874913  0.406179  1.0
  O  O39  1  0.968914  0.791812  0.874830  1.0
  O  O40  1  0.916774  0.125087  0.593821  1.0
  O  O41  1  0.583078  0.905910  0.374933  1.0
  O  O42  1  0.677089  0.093815  0.968767  1.0
  O  O43  1  0.125170  0.031086  0.208188  1.0
  O  O44  1  0.968767  0.677089  0.093815  1.0
  O  O45  1  0.905910  0.374933  0.583078  1.0
  O  O46  1  0.677117  0.083362  0.708250  1.0
  O  O47  1  0.094090  0.625067  0.416922  1.0
  O  O48  1  0.823100  0.531439  0.406312  1.0
  O  O49  1  0.822943  0.791847  0.416749  1.0
  O  O50  1  0.708250  0.677117  0.083362  1.0
  O  O51  1  0.625225  0.708130  0.531065  1.0
  O  O52  1  0.322883  0.916638  0.291750  1.0
  O  O53  1  0.093815  0.968767  0.677089  1.0
  O  O54  1  0.125087  0.593821  0.916774  1.0
  O  O55  1  0.874913  0.406179  0.083226  1.0
  O  O56  1  0.406312  0.823100  0.531439  1.0
  O  O57  1  0.874830  0.968914  0.791812  1.0
  O  O58  1  0.291870  0.468935  0.374775  1.0
  O  O59  1  0.291750  0.322883  0.916638  1.0
  O  O60  1  0.791812  0.874830  0.968914  1.0
  O  O61  1  0.177057  0.208153  0.583251  1.0
  O  O62  1  0.031233  0.322911  0.906185  1.0
  O  O63  1  0.583251  0.177057  0.208153  1.0
  O  O64  1  0.322911  0.906185  0.031233  1.0
  O  O65  1  0.531439  0.406312  0.823100  1.0
  O  O66  1  0.374775  0.291870  0.468935  1.0
  O  O67  1  0.031086  0.208188  0.125170  1.0
  O  O68  1  0.208188  0.125170  0.031086  1.0
  O  O69  1  0.416922  0.094090  0.625067  1.0
  O  O70  1  0.791847  0.416749  0.822943  1.0
  O  O71  1  0.208153  0.583251  0.177057  1.0
  O  O72  1  0.176900  0.468561  0.593688  1.0
  O  O73  1  0.468935  0.374775  0.291870  1.0
  O  O74  1  0.406179  0.083226  0.874913  1.0
  O  O75  1  0.374933  0.583078  0.905910  1.0
  O  O76  1  0.916638  0.291750  0.322883  1.0
  O  O77  1  0.416749  0.822943  0.791847  1.0
  O  O78  1  0.083362  0.708250  0.677117  1.0
  O  O79  1  0.708130  0.531065  0.625225  1.0
  O  O80  1  0.593821  0.916774  0.125087  1.0
