# generated using pymatgen
data_Al2O3
_symmetry_space_group_name_H-M   'P 1'
_cell_length_a   5.68686135
_cell_length_b   5.65478367
_cell_length_c   16.88433162
_cell_angle_alpha   60.33267470
_cell_angle_beta   58.23625209
_cell_angle_gamma   59.85228876
_symmetry_Int_Tables_number   1
_chemical_formula_structural   Al2O3
_chemical_formula_sum   'Al16 O24'
_cell_volume   379.05849290
_cell_formula_units_Z   8
loop_
 _symmetry_equiv_pos_site_id
 _symmetry_equiv_pos_as_xyz
  1  'x, y, z'
loop_
 _atom_site_type_symbol
 _atom_site_label
 _atom_site_symmetry_multiplicity
 _atom_site_fract_x
 _atom_site_fract_y
 _atom_site_fract_z
 _atom_site_occupancy
  Al  Al1  1  0.115703  0.624466  0.038304  1.0
  Al  Al2  1  0.970842  0.010547  0.165737  1.0
  Al  Al3  1  0.452318  0.991410  0.339541  1.0
  Al  Al4  1  0.481527  0.500471  0.160835  1.0
  Al  Al5  1  0.464905  0.017424  0.166172  1.0
  Al  Al6  1  0.131162  0.097137  0.712897  1.0
  Al  Al7  1  0.429339  0.492626  0.510167  1.0
  Al  Al8  1  0.497579  0.486841  0.666034  1.0
  Al  Al9  1  0.964380  0.468289  0.356223  1.0
  Al  Al10  1  0.484536  0.491381  0.333077  1.0
  Al  Al11  1  0.518763  0.971530  0.504537  1.0
  Al  Al12  1  0.501146  0.511341  0.826647  1.0
  Al  Al13  1  0.845646  0.893801  0.619759  1.0
  Al  Al14  1  0.496148  0.982419  0.827912  1.0
  Al  Al15  1  0.884348  0.386671  0.937349  1.0
  Al  Al16  1  0.520590  0.998648  0.986491  1.0
  O  O17  1  0.232169  0.224848  0.089464  1.0
  O  O18  1  0.248353  0.257328  0.248421  1.0
  O  O19  1  0.233925  0.758400  0.086908  1.0
  O  O20  1  0.728950  0.240540  0.086075  1.0
  O  O21  1  0.240004  0.745662  0.241602  1.0
  O  O22  1  0.254004  0.259194  0.402568  1.0
  O  O23  1  0.255937  0.219188  0.580283  1.0
  O  O24  1  0.701474  0.259655  0.242295  1.0
  O  O25  1  0.271010  0.726816  0.409021  1.0
  O  O26  1  0.708508  0.760137  0.083747  1.0
  O  O27  1  0.708650  0.273794  0.410495  1.0
  O  O28  1  0.709732  0.780471  0.244362  1.0
  O  O29  1  0.269186  0.234694  0.750466  1.0
  O  O30  1  0.250771  0.751598  0.577637  1.0
  O  O31  1  0.273378  0.712893  0.750665  1.0
  O  O32  1  0.697371  0.276871  0.576646  1.0
  O  O33  1  0.268002  0.230755  0.915968  1.0
  O  O34  1  0.697551  0.758702  0.410826  1.0
  O  O35  1  0.727825  0.242295  0.751513  1.0
  O  O36  1  0.727777  0.740028  0.581493  1.0
  O  O37  1  0.260054  0.739398  0.912141  1.0
  O  O38  1  0.710378  0.254120  0.916263  1.0
  O  O39  1  0.729300  0.747646  0.750687  1.0
  O  O40  1  0.711761  0.754968  0.917509  1.0
