# generated using pymatgen
data_NdZnSn
_symmetry_space_group_name_H-M   'P 1'
_cell_length_a   4.59285292
_cell_length_b   4.59285292
_cell_length_c   16.41239430
_cell_angle_alpha   90.00000000
_cell_angle_beta   90.00000000
_cell_angle_gamma   120.00348482
_symmetry_Int_Tables_number   1
_chemical_formula_structural   NdZnSn
_chemical_formula_sum   'Nd4 Zn4 Sn4'
_cell_volume   299.81433799
_cell_formula_units_Z   4
loop_
 _symmetry_equiv_pos_site_id
 _symmetry_equiv_pos_as_xyz
  1  'x, y, z'
loop_
 _atom_site_type_symbol
 _atom_site_label
 _atom_site_symmetry_multiplicity
 _atom_site_fract_x
 _atom_site_fract_y
 _atom_site_fract_z
 _atom_site_occupancy
  Nd  Nd1  1  0.000000  0.000000  0.500000  1.0
  Nd  Nd2  1  0.000000  0.000000  0.000000  1.0
  Nd  Nd3  1  0.999915  0.000085  0.750000  1.0
  Nd  Nd4  1  0.000085  0.999915  0.250000  1.0
  Zn  Zn5  1  0.666717  0.333283  0.656397  1.0
  Zn  Zn6  1  0.333283  0.666717  0.343603  1.0
  Zn  Zn7  1  0.333283  0.666717  0.156397  1.0
  Zn  Zn8  1  0.666717  0.333283  0.843603  1.0
  Sn  Sn9  1  0.666705  0.333295  0.115035  1.0
  Sn  Sn10  1  0.333295  0.666705  0.884965  1.0
  Sn  Sn11  1  0.333295  0.666705  0.615035  1.0
  Sn  Sn12  1  0.666705  0.333295  0.384965  1.0
