# generated using pymatgen
data_Zn3As2
_symmetry_space_group_name_H-M   'P 1'
_cell_length_a   11.91786125
_cell_length_b   11.91786125
_cell_length_c   23.87169324
_cell_angle_alpha   90.00000000
_cell_angle_beta   90.00000000
_cell_angle_gamma   90.00000000
_symmetry_Int_Tables_number   1
_chemical_formula_structural   Zn3As2
_chemical_formula_sum   'Zn96 As64'
_cell_volume   3390.62589845
_cell_formula_units_Z   32
loop_
 _symmetry_equiv_pos_site_id
 _symmetry_equiv_pos_as_xyz
  1  'x, y, z'
loop_
 _atom_site_type_symbol
 _atom_site_label
 _atom_site_symmetry_multiplicity
 _atom_site_fract_x
 _atom_site_fract_y
 _atom_site_fract_z
 _atom_site_occupancy
  Zn  Zn1  1  0.137309  0.891332  0.070878  1.0
  Zn  Zn2  1  0.638394  0.861641  0.554617  1.0
  Zn  Zn3  1  0.395340  0.626458  0.937475  1.0
  Zn  Zn4  1  0.361641  0.361606  0.945383  1.0
  Zn  Zn5  1  0.859654  0.140108  0.195640  1.0
  Zn  Zn6  1  0.886546  0.632602  0.320162  1.0
  Zn  Zn7  1  0.140346  0.640108  0.195640  1.0
  Zn  Zn8  1  0.362691  0.891332  0.929122  1.0
  Zn  Zn9  1  0.873542  0.395340  0.437475  1.0
  Zn  Zn10  1  0.126458  0.604660  0.562525  1.0
  Zn  Zn11  1  0.373542  0.604660  0.437475  1.0
  Zn  Zn12  1  0.637309  0.108668  0.070878  1.0
  Zn  Zn13  1  0.138394  0.138359  0.554617  1.0
  Zn  Zn14  1  0.637309  0.391332  0.929122  1.0
  Zn  Zn15  1  0.104660  0.873542  0.937475  1.0
  Zn  Zn16  1  0.870088  0.896318  0.312036  1.0
  Zn  Zn17  1  0.104660  0.626458  0.062525  1.0
  Zn  Zn18  1  0.895340  0.373542  0.937475  1.0
  Zn  Zn19  1  0.626458  0.395340  0.562525  1.0
  Zn  Zn20  1  0.608668  0.362691  0.429122  1.0
  Zn  Zn21  1  0.359892  0.640346  0.304360  1.0
  Zn  Zn22  1  0.867398  0.886546  0.820162  1.0
  Zn  Zn23  1  0.129912  0.396318  0.312036  1.0
  Zn  Zn24  1  0.359654  0.640108  0.804360  1.0
  Zn  Zn25  1  0.638394  0.638359  0.445383  1.0
  Zn  Zn26  1  0.138394  0.361641  0.445383  1.0
  Zn  Zn27  1  0.396318  0.370088  0.812036  1.0
  Zn  Zn28  1  0.886546  0.867398  0.679838  1.0
  Zn  Zn29  1  0.895340  0.126458  0.062525  1.0
  Zn  Zn30  1  0.113454  0.367398  0.679838  1.0
  Zn  Zn31  1  0.862691  0.391332  0.070878  1.0
  Zn  Zn32  1  0.638359  0.861606  0.945383  1.0
  Zn  Zn33  1  0.359654  0.859892  0.195640  1.0
  Zn  Zn34  1  0.640108  0.359654  0.695640  1.0
  Zn  Zn35  1  0.362691  0.608668  0.070878  1.0
  Zn  Zn36  1  0.359892  0.859654  0.695640  1.0
  Zn  Zn37  1  0.108668  0.862691  0.570878  1.0
  Zn  Zn38  1  0.140346  0.859892  0.804360  1.0
  Zn  Zn39  1  0.870088  0.603682  0.687964  1.0
  Zn  Zn40  1  0.138359  0.138394  0.945383  1.0
  Zn  Zn41  1  0.896318  0.629912  0.812036  1.0
  Zn  Zn42  1  0.132602  0.113454  0.179838  1.0
  Zn  Zn43  1  0.603682  0.870088  0.812036  1.0
  Zn  Zn44  1  0.140108  0.859654  0.304360  1.0
  Zn  Zn45  1  0.395340  0.873542  0.062525  1.0
  Zn  Zn46  1  0.891332  0.137309  0.429122  1.0
  Zn  Zn47  1  0.859892  0.359654  0.304360  1.0
  Zn  Zn48  1  0.861606  0.861641  0.445383  1.0
  Zn  Zn49  1  0.859654  0.359892  0.804360  1.0
  Zn  Zn50  1  0.629912  0.603682  0.312036  1.0
  Zn  Zn51  1  0.861606  0.638359  0.554617  1.0
  Zn  Zn52  1  0.138359  0.361606  0.054617  1.0
  Zn  Zn53  1  0.626458  0.104660  0.437475  1.0
  Zn  Zn54  1  0.896318  0.870088  0.187964  1.0
  Zn  Zn55  1  0.108668  0.637309  0.429122  1.0
  Zn  Zn56  1  0.361606  0.361641  0.554617  1.0
  Zn  Zn57  1  0.613454  0.632602  0.679838  1.0
  Zn  Zn58  1  0.867398  0.613454  0.179838  1.0
  Zn  Zn59  1  0.604660  0.126458  0.937475  1.0
  Zn  Zn60  1  0.367398  0.113454  0.820162  1.0
  Zn  Zn61  1  0.862691  0.108668  0.929122  1.0
  Zn  Zn62  1  0.604660  0.373542  0.062525  1.0
  Zn  Zn63  1  0.137309  0.608668  0.929122  1.0
  Zn  Zn64  1  0.891332  0.362691  0.570878  1.0
  Zn  Zn65  1  0.113454  0.132602  0.320162  1.0
  Zn  Zn66  1  0.132602  0.386546  0.820162  1.0
  Zn  Zn67  1  0.861641  0.861606  0.054617  1.0
  Zn  Zn68  1  0.640346  0.359892  0.195640  1.0
  Zn  Zn69  1  0.638359  0.638394  0.054617  1.0
  Zn  Zn70  1  0.140108  0.640346  0.695640  1.0
  Zn  Zn71  1  0.370088  0.396318  0.687964  1.0
  Zn  Zn72  1  0.370088  0.103682  0.312036  1.0
  Zn  Zn73  1  0.373542  0.895340  0.562525  1.0
  Zn  Zn74  1  0.386546  0.132602  0.679838  1.0
  Zn  Zn75  1  0.603682  0.629912  0.187964  1.0
  Zn  Zn76  1  0.361641  0.138394  0.054617  1.0
  Zn  Zn77  1  0.126458  0.895340  0.437475  1.0
  Zn  Zn78  1  0.873542  0.104660  0.562525  1.0
  Zn  Zn79  1  0.629912  0.896318  0.687964  1.0
  Zn  Zn80  1  0.608668  0.137309  0.570878  1.0
  Zn  Zn81  1  0.640346  0.140108  0.804360  1.0
  Zn  Zn82  1  0.859892  0.140346  0.695640  1.0
  Zn  Zn83  1  0.391332  0.637309  0.570878  1.0
  Zn  Zn84  1  0.396318  0.129912  0.187964  1.0
  Zn  Zn85  1  0.386546  0.367398  0.320162  1.0
  Zn  Zn86  1  0.640108  0.140346  0.304360  1.0
  Zn  Zn87  1  0.613454  0.867398  0.320162  1.0
  Zn  Zn88  1  0.861641  0.638394  0.945383  1.0
  Zn  Zn89  1  0.361606  0.138359  0.445383  1.0
  Zn  Zn90  1  0.367398  0.386546  0.179838  1.0
  Zn  Zn91  1  0.103682  0.129912  0.812036  1.0
  Zn  Zn92  1  0.103682  0.370088  0.187964  1.0
  Zn  Zn93  1  0.632602  0.613454  0.820162  1.0
  Zn  Zn94  1  0.129912  0.103682  0.687964  1.0
  Zn  Zn95  1  0.391332  0.862691  0.429122  1.0
  Zn  Zn96  1  0.632602  0.886546  0.179838  1.0
  As  As97  1  0.755267  0.998681  0.752471  1.0
  As  As98  1  0.250000  0.750000  0.624586  1.0
  As  As99  1  0.500590  0.750000  0.000000  1.0
  As  As100  1  0.001185  0.004536  0.625437  1.0
  As  As101  1  0.495464  0.001185  0.125437  1.0
  As  As102  1  0.997368  0.250000  0.500000  1.0
  As  As103  1  0.998681  0.744733  0.252471  1.0
  As  As104  1  0.498681  0.255267  0.252471  1.0
  As  As105  1  0.250000  0.250000  0.625209  1.0
  As  As106  1  0.750000  0.999410  0.500000  1.0
  As  As107  1  0.244733  0.001319  0.247529  1.0
  As  As108  1  0.497368  0.750000  0.500000  1.0
  As  As109  1  0.000590  0.250000  0.000000  1.0
  As  As110  1  0.995464  0.501185  0.874563  1.0
  As  As111  1  0.250000  0.997368  0.000000  1.0
  As  As112  1  0.750000  0.250000  0.624586  1.0
  As  As113  1  0.250000  0.499410  0.500000  1.0
  As  As114  1  0.498815  0.004536  0.374563  1.0
  As  As115  1  0.744733  0.501319  0.752471  1.0
  As  As116  1  0.998681  0.755267  0.747529  1.0
  As  As117  1  0.995464  0.998815  0.125437  1.0
  As  As118  1  0.255267  0.001319  0.752471  1.0
  As  As119  1  0.002632  0.750000  0.500000  1.0
  As  As120  1  0.498815  0.495464  0.625437  1.0
  As  As121  1  0.750000  0.750000  0.625209  1.0
  As  As122  1  0.250000  0.502632  0.000000  1.0
  As  As123  1  0.999410  0.750000  0.000000  1.0
  As  As124  1  0.250000  0.250000  0.874791  1.0
  As  As125  1  0.250000  0.000590  0.500000  1.0
  As  As126  1  0.750000  0.750000  0.374791  1.0
  As  As127  1  0.244733  0.498681  0.752471  1.0
  As  As128  1  0.750000  0.497368  0.000000  1.0
  As  As129  1  0.750000  0.500590  0.500000  1.0
  As  As130  1  0.001185  0.495464  0.374563  1.0
  As  As131  1  0.004536  0.001185  0.874563  1.0
  As  As132  1  0.750000  0.750000  0.874791  1.0
  As  As133  1  0.001319  0.244733  0.252471  1.0
  As  As134  1  0.998815  0.995464  0.374563  1.0
  As  As135  1  0.501319  0.755267  0.252471  1.0
  As  As136  1  0.750000  0.250000  0.375414  1.0
  As  As137  1  0.250000  0.750000  0.375414  1.0
  As  As138  1  0.495464  0.498815  0.874563  1.0
  As  As139  1  0.504536  0.501185  0.125437  1.0
  As  As140  1  0.998815  0.504536  0.625437  1.0
  As  As141  1  0.504536  0.998815  0.874563  1.0
  As  As142  1  0.255267  0.498681  0.247529  1.0
  As  As143  1  0.250000  0.750000  0.875414  1.0
  As  As144  1  0.744733  0.998681  0.247529  1.0
  As  As145  1  0.501319  0.744733  0.747529  1.0
  As  As146  1  0.750000  0.250000  0.124586  1.0
  As  As147  1  0.750000  0.250000  0.875414  1.0
  As  As148  1  0.501185  0.995464  0.625437  1.0
  As  As149  1  0.498681  0.244733  0.747529  1.0
  As  As150  1  0.004536  0.498815  0.125437  1.0
  As  As151  1  0.750000  0.002632  0.000000  1.0
  As  As152  1  0.750000  0.750000  0.125209  1.0
  As  As153  1  0.250000  0.250000  0.125209  1.0
  As  As154  1  0.001319  0.255267  0.747529  1.0
  As  As155  1  0.501185  0.504536  0.374563  1.0
  As  As156  1  0.499410  0.250000  0.000000  1.0
  As  As157  1  0.755267  0.501319  0.247529  1.0
  As  As158  1  0.250000  0.750000  0.124586  1.0
  As  As159  1  0.250000  0.250000  0.374791  1.0
  As  As160  1  0.502632  0.250000  0.500000  1.0
