# generated using pymatgen
data_SrIn4Pt
_symmetry_space_group_name_H-M   'P 1'
_cell_length_a   4.61195620
_cell_length_b   7.62327547
_cell_length_c   8.95915235
_cell_angle_alpha   90.00000000
_cell_angle_beta   104.91513019
_cell_angle_gamma   90.00000000
_symmetry_Int_Tables_number   1
_chemical_formula_structural   SrIn4Pt
_chemical_formula_sum   'Sr2 In8 Pt2'
_cell_volume   304.37525978
_cell_formula_units_Z   2
loop_
 _symmetry_equiv_pos_site_id
 _symmetry_equiv_pos_as_xyz
  1  'x, y, z'
loop_
 _atom_site_type_symbol
 _atom_site_label
 _atom_site_symmetry_multiplicity
 _atom_site_fract_x
 _atom_site_fract_y
 _atom_site_fract_z
 _atom_site_occupancy
  Sr  Sr1  1  0.874283  0.250000  0.748566  1.0
  Sr  Sr2  1  0.125717  0.750000  0.251434  1.0
  In  In3  1  0.684621  0.049647  0.369242  1.0
  In  In4  1  0.500000  0.500000  0.000000  1.0
  In  In5  1  0.315379  0.549647  0.630758  1.0
  In  In6  1  0.315379  0.950353  0.630758  1.0
  In  In7  1  0.684621  0.450353  0.369242  1.0
  In  In8  1  0.932560  0.750000  0.865120  1.0
  In  In9  1  0.067440  0.250000  0.134880  1.0
  In  In10  1  0.500000  0.000000  0.000000  1.0
  Pt  Pt11  1  0.224727  0.250000  0.449454  1.0
  Pt  Pt12  1  0.775273  0.750000  0.550546  1.0
