# generated using pymatgen
data_Pb3O4
_symmetry_space_group_name_H-M   'P 1'
_cell_length_a   6.77666625
_cell_length_b   9.03945416
_cell_length_c   9.03945416
_cell_angle_alpha   90.00000000
_cell_angle_beta   90.00000000
_cell_angle_gamma   90.00000000
_symmetry_Int_Tables_number   1
_chemical_formula_structural   Pb3O4
_chemical_formula_sum   'Pb12 O16'
_cell_volume   553.73313316
_cell_formula_units_Z   4
loop_
 _symmetry_equiv_pos_site_id
 _symmetry_equiv_pos_as_xyz
  1  'x, y, z'
loop_
 _atom_site_type_symbol
 _atom_site_label
 _atom_site_symmetry_multiplicity
 _atom_site_fract_x
 _atom_site_fract_y
 _atom_site_fract_z
 _atom_site_occupancy
  Pb  Pb1  1  0.250000  0.000000  0.500000  1.0
  Pb  Pb2  1  0.750000  0.500000  0.000000  1.0
  Pb  Pb3  1  0.750000  0.000000  0.500000  1.0
  Pb  Pb4  1  0.250000  0.500000  0.000000  1.0
  Pb  Pb5  1  0.000000  0.167490  0.144926  1.0
  Pb  Pb6  1  0.500000  0.855074  0.167490  1.0
  Pb  Pb7  1  0.500000  0.144926  0.832510  1.0
  Pb  Pb8  1  0.000000  0.832510  0.855074  1.0
  Pb  Pb9  1  0.000000  0.667490  0.355074  1.0
  Pb  Pb10  1  0.000000  0.332510  0.644926  1.0
  Pb  Pb11  1  0.500000  0.644926  0.667490  1.0
  Pb  Pb12  1  0.500000  0.355074  0.332510  1.0
  O  O13  1  0.250000  0.170617  0.670617  1.0
  O  O14  1  0.750000  0.329383  0.170617  1.0
  O  O15  1  0.750000  0.670617  0.829383  1.0
  O  O16  1  0.250000  0.829383  0.329383  1.0
  O  O17  1  0.750000  0.829383  0.329383  1.0
  O  O18  1  0.250000  0.670617  0.829383  1.0
  O  O19  1  0.250000  0.329383  0.170617  1.0
  O  O20  1  0.750000  0.170617  0.670617  1.0
  O  O21  1  0.000000  0.133386  0.405209  1.0
  O  O22  1  0.500000  0.594791  0.133386  1.0
  O  O23  1  0.500000  0.405209  0.866614  1.0
  O  O24  1  0.000000  0.866614  0.594791  1.0
  O  O25  1  0.000000  0.633386  0.094791  1.0
  O  O26  1  0.000000  0.366614  0.905209  1.0
  O  O27  1  0.500000  0.905209  0.633386  1.0
  O  O28  1  0.500000  0.094791  0.366614  1.0
