# generated using pymatgen
data_KCrF3
_symmetry_space_group_name_H-M   'P 1'
_cell_length_a   5.95453125
_cell_length_b   5.97979483
_cell_length_c   5.99177583
_cell_angle_alpha   117.94483130
_cell_angle_beta   117.79983903
_cell_angle_gamma   93.50513191
_symmetry_Int_Tables_number   1
_chemical_formula_structural   KCrF3
_chemical_formula_sum   'K2 Cr2 F6'
_cell_volume   155.67387092
_cell_formula_units_Z   2
loop_
 _symmetry_equiv_pos_site_id
 _symmetry_equiv_pos_as_xyz
  1  'x, y, z'
loop_
 _atom_site_type_symbol
 _atom_site_label
 _atom_site_symmetry_multiplicity
 _atom_site_fract_x
 _atom_site_fract_y
 _atom_site_fract_z
 _atom_site_occupancy
  K  K1  1  0.748662  0.748662  0.497324  1.0
  K  K2  1  0.251338  0.251338  0.502676  1.0
  Cr  Cr3  1  0.000000  0.500000  0.000000  1.0
  Cr  Cr4  1  0.500000  0.000000  0.000000  1.0
  F  F5  1  0.230190  0.730190  0.460382  1.0
  F  F6  1  0.718760  0.280629  0.000000  1.0
  F  F7  1  0.281240  0.719371  0.000000  1.0
  F  F8  1  0.239607  0.199998  0.000000  1.0
  F  F9  1  0.769810  0.269810  0.539618  1.0
  F  F10  1  0.760393  0.800002  0.000000  1.0
