# generated using pymatgen
data_RbPS3
_symmetry_space_group_name_H-M   'P 1'
_cell_length_a   7.20444574
_cell_length_b   7.47057586
_cell_length_c   7.47057556
_cell_angle_alpha   74.34119353
_cell_angle_beta   61.17159266
_cell_angle_gamma   61.17159277
_symmetry_Int_Tables_number   1
_chemical_formula_structural   RbPS3
_chemical_formula_sum   'Rb2 P2 S6'
_cell_volume   308.22491390
_cell_formula_units_Z   2
loop_
 _symmetry_equiv_pos_site_id
 _symmetry_equiv_pos_as_xyz
  1  'x, y, z'
loop_
 _atom_site_type_symbol
 _atom_site_label
 _atom_site_symmetry_multiplicity
 _atom_site_fract_x
 _atom_site_fract_y
 _atom_site_fract_z
 _atom_site_occupancy
  Rb  Rb1  1  0.500000  0.741725  0.258275  1.0
  Rb  Rb2  1  0.500000  0.258275  0.741725  1.0
  P  P3  1  0.156989  0.343011  0.343011  1.0
  P  P4  1  0.843011  0.656989  0.656989  1.0
  S  S5  1  0.000000  0.326236  0.673764  1.0
  S  S6  1  0.028376  0.235689  0.235689  1.0
  S  S7  1  0.499754  0.764311  0.764311  1.0
  S  S8  1  0.000000  0.673764  0.326236  1.0
  S  S9  1  0.500246  0.235689  0.235689  1.0
  S  S10  1  0.971624  0.764311  0.764311  1.0
