# generated using pymatgen
data_Li2B4O7
_symmetry_space_group_name_H-M   'P 1'
_cell_length_a   8.66788994
_cell_length_b   8.66788994
_cell_length_c   8.66788994
_cell_angle_alpha   102.87882322
_cell_angle_beta   112.86462257
_cell_angle_gamma   112.86462258
_symmetry_Int_Tables_number   1
_chemical_formula_structural   Li2B4O7
_chemical_formula_sum   'Li8 B16 O28'
_cell_volume   496.42517326
_cell_formula_units_Z   4
loop_
 _symmetry_equiv_pos_site_id
 _symmetry_equiv_pos_as_xyz
  1  'x, y, z'
loop_
 _atom_site_type_symbol
 _atom_site_label
 _atom_site_symmetry_multiplicity
 _atom_site_fract_x
 _atom_site_fract_y
 _atom_site_fract_z
 _atom_site_occupancy
  Li  Li1  1  0.654583  0.657147  0.672881  1.0
  Li  Li2  1  0.515734  0.422881  0.268298  1.0
  Li  Li3  1  0.484266  0.752564  0.907147  1.0
  Li  Li4  1  0.345417  0.018298  0.002564  1.0
  Li  Li5  1  0.015734  0.518298  0.172881  1.0
  Li  Li6  1  0.984266  0.157147  0.502564  1.0
  Li  Li7  1  0.154583  0.922881  0.407147  1.0
  Li  Li8  1  0.845417  0.252564  0.768298  1.0
  B  B9  1  0.410114  0.783477  0.531310  1.0
  B  B10  1  0.247833  0.281310  0.371196  1.0
  B  B11  1  0.752167  0.123362  0.033477  1.0
  B  B12  1  0.589886  0.121196  0.373362  1.0
  B  B13  1  0.747833  0.621196  0.031310  1.0
  B  B14  1  0.252167  0.283477  0.873362  1.0
  B  B15  1  0.910114  0.781310  0.533477  1.0
  B  B16  1  0.089886  0.623362  0.871196  1.0
  B  B17  1  0.160782  0.698278  0.632319  1.0
  B  B18  1  0.434040  0.382319  0.721537  1.0
  B  B19  1  0.565960  0.287496  0.948278  1.0
  B  B20  1  0.839218  0.471537  0.537496  1.0
  B  B21  1  0.934040  0.971537  0.132319  1.0
  B  B22  1  0.065960  0.198278  0.037496  1.0
  B  B23  1  0.660782  0.882319  0.448278  1.0
  B  B24  1  0.339218  0.787496  0.221537  1.0
  O  O25  1  0.348646  0.741311  0.647578  1.0
  O  O26  1  0.406267  0.397578  0.548932  1.0
  O  O27  1  0.593733  0.142665  0.991311  1.0
  O  O28  1  0.651354  0.298932  0.392665  1.0
  O  O29  1  0.906267  0.798932  0.147578  1.0
  O  O30  1  0.093733  0.241311  0.892665  1.0
  O  O31  1  0.848646  0.897578  0.491311  1.0
  O  O32  1  0.151354  0.642665  0.048932  1.0
  O  O33  1  0.599801  0.831334  0.579730  1.0
  O  O34  1  0.248396  0.329730  0.229929  1.0
  O  O35  1  0.751604  0.981533  0.081334  1.0
  O  O36  1  0.400199  0.979929  0.231533  1.0
  O  O37  1  0.748396  0.479929  0.079730  1.0
  O  O38  1  0.251604  0.331334  0.731533  1.0
  O  O39  1  0.099801  0.829730  0.581334  1.0
  O  O40  1  0.900199  0.481533  0.729929  1.0
  O  O41  1  0.283044  0.777284  0.368326  1.0
  O  O42  1  0.091042  0.118326  0.335282  1.0
  O  O43  1  0.908958  0.244240  0.027284  1.0
  O  O44  1  0.716956  0.085282  0.494240  1.0
  O  O45  1  0.591042  0.585282  0.868326  1.0
  O  O46  1  0.408958  0.277284  0.994240  1.0
  O  O47  1  0.783044  0.618326  0.527284  1.0
  O  O48  1  0.216956  0.744240  0.835282  1.0
  O  O49  1  0.000000  0.508058  0.508058  1.0
  O  O50  1  0.500000  0.258058  0.758058  1.0
  O  O51  1  0.000000  0.008058  0.008058  1.0
  O  O52  1  0.500000  0.758058  0.258058  1.0
