# generated using pymatgen
data_V2H
_symmetry_space_group_name_H-M   'P 1'
_cell_length_a   5.34142927
_cell_length_b   5.34142927
_cell_length_c   5.34142927
_cell_angle_alpha   112.95611633
_cell_angle_beta   112.95611633
_cell_angle_gamma   102.70598047
_symmetry_Int_Tables_number   1
_chemical_formula_structural   V2H
_chemical_formula_sum   'V8 H4'
_cell_volume   116.10757293
_cell_formula_units_Z   4
loop_
 _symmetry_equiv_pos_site_id
 _symmetry_equiv_pos_as_xyz
  1  'x, y, z'
loop_
 _atom_site_type_symbol
 _atom_site_label
 _atom_site_symmetry_multiplicity
 _atom_site_fract_x
 _atom_site_fract_y
 _atom_site_fract_z
 _atom_site_occupancy
  V  V1  1  0.730871  0.732411  0.501540  1.0
  V  V2  1  0.732411  0.730871  0.001540  1.0
  V  V3  1  0.229332  0.730871  0.498460  1.0
  V  V4  1  0.730871  0.229332  0.998460  1.0
  V  V5  1  0.269129  0.267589  0.498460  1.0
  V  V6  1  0.267589  0.269129  0.998460  1.0
  V  V7  1  0.770668  0.269129  0.501540  1.0
  V  V8  1  0.269129  0.770668  0.001540  1.0
  H  H9  1  0.000000  0.500000  0.000000  1.0
  H  H10  1  0.500000  0.000000  0.500000  1.0
  H  H11  1  0.000000  0.000000  0.000000  1.0
  H  H12  1  0.000000  0.000000  0.500000  1.0
