# generated using pymatgen
data_Cs2SiP2
_symmetry_space_group_name_H-M   'P 1'
_cell_length_a   6.23114453
_cell_length_b   7.67701133
_cell_length_c   8.71950554
_cell_angle_alpha   116.11795497
_cell_angle_beta   110.93512594
_cell_angle_gamma   89.99999996
_symmetry_Int_Tables_number   1
_chemical_formula_structural   Cs2SiP2
_chemical_formula_sum   'Cs4 Si2 P4'
_cell_volume   343.58798954
_cell_formula_units_Z   2
loop_
 _symmetry_equiv_pos_site_id
 _symmetry_equiv_pos_as_xyz
  1  'x, y, z'
loop_
 _atom_site_type_symbol
 _atom_site_label
 _atom_site_symmetry_multiplicity
 _atom_site_fract_x
 _atom_site_fract_y
 _atom_site_fract_z
 _atom_site_occupancy
  Cs  Cs1  1  0.146331  0.974455  0.292663  1.0
  Cs  Cs2  1  0.853669  0.025545  0.707337  1.0
  Cs  Cs3  1  0.353669  0.681792  0.707337  1.0
  Cs  Cs4  1  0.646331  0.318208  0.292663  1.0
  Si  Si5  1  0.750000  0.500000  0.000000  1.0
  Si  Si6  1  0.250000  0.500000  0.000000  1.0
  P  P7  1  0.587236  0.734515  0.174472  1.0
  P  P8  1  0.912764  0.560043  0.825528  1.0
  P  P9  1  0.087236  0.439957  0.174472  1.0
  P  P10  1  0.412764  0.265485  0.825528  1.0
