# generated using pymatgen
data_K2NaAlAs2
_symmetry_space_group_name_H-M   'P 1'
_cell_length_a   6.52874023
_cell_length_b   6.80986790
_cell_length_c   8.91416684
_cell_angle_alpha   112.45569046
_cell_angle_beta   111.48146679
_cell_angle_gamma   90.00000000
_symmetry_Int_Tables_number   1
_chemical_formula_structural   K2NaAlAs2
_chemical_formula_sum   'K4 Na2 Al2 As4'
_cell_volume   336.29021699
_cell_formula_units_Z   2
loop_
 _symmetry_equiv_pos_site_id
 _symmetry_equiv_pos_as_xyz
  1  'x, y, z'
loop_
 _atom_site_type_symbol
 _atom_site_label
 _atom_site_symmetry_multiplicity
 _atom_site_fract_x
 _atom_site_fract_y
 _atom_site_fract_z
 _atom_site_occupancy
  K  K1  1  0.325143  0.566509  0.650287  1.0
  K  K2  1  0.174857  0.916223  0.349713  1.0
  K  K3  1  0.674857  0.433491  0.349713  1.0
  K  K4  1  0.825143  0.083777  0.650287  1.0
  Na  Na5  1  0.250000  0.500000  0.000000  1.0
  Na  Na6  1  0.750000  0.500000  0.000000  1.0
  Al  Al7  1  0.250000  0.000000  0.000000  1.0
  Al  Al8  1  0.750000  0.000000  0.000000  1.0
  As  As9  1  0.905768  0.705343  0.811536  1.0
  As  As10  1  0.094232  0.294657  0.188464  1.0
  As  As11  1  0.594232  0.893807  0.188464  1.0
  As  As12  1  0.405768  0.106193  0.811536  1.0
