# generated using pymatgen
data_FeP2O7
_symmetry_space_group_name_H-M   'P 1'
_cell_length_a   5.23609255
_cell_length_b   5.23609248
_cell_length_c   4.60804535
_cell_angle_alpha   81.79712523
_cell_angle_beta   98.20287460
_cell_angle_gamma   79.47961155
_symmetry_Int_Tables_number   1
_chemical_formula_structural   FeP2O7
_chemical_formula_sum   'Fe1 P2 O7'
_cell_volume   121.08053822
_cell_formula_units_Z   1
loop_
 _symmetry_equiv_pos_site_id
 _symmetry_equiv_pos_as_xyz
  1  'x, y, z'
loop_
 _atom_site_type_symbol
 _atom_site_label
 _atom_site_symmetry_multiplicity
 _atom_site_fract_x
 _atom_site_fract_y
 _atom_site_fract_z
 _atom_site_occupancy
  Fe  Fe1  1  0.110490  0.110490  0.000000  1.0
  P  P2  1  0.267357  0.662711  0.588497  1.0
  P  P3  1  0.662711  0.267357  0.411503  1.0
  O  O4  1  0.546895  0.546895  0.500000  1.0
  O  O5  1  0.849797  0.329651  0.196946  1.0
  O  O6  1  0.434181  0.158756  0.265687  1.0
  O  O7  1  0.329651  0.849797  0.803054  1.0
  O  O8  1  0.158756  0.434181  0.734313  1.0
  O  O9  1  0.084546  0.802351  0.297562  1.0
  O  O10  1  0.802351  0.084546  0.702438  1.0
