# generated using pymatgen
data_SbS2NCl6
_symmetry_space_group_name_H-M   'P 1'
_cell_length_a   7.27515060
_cell_length_b   7.35138846
_cell_length_c   7.35138834
_cell_angle_alpha   67.70341090
_cell_angle_beta   60.34246415
_cell_angle_gamma   60.34246079
_symmetry_Int_Tables_number   1
_chemical_formula_structural   SbS2NCl6
_chemical_formula_sum   'Sb1 S2 N1 Cl6'
_cell_volume   292.15435146
_cell_formula_units_Z   1
loop_
 _symmetry_equiv_pos_site_id
 _symmetry_equiv_pos_as_xyz
  1  'x, y, z'
loop_
 _atom_site_type_symbol
 _atom_site_label
 _atom_site_symmetry_multiplicity
 _atom_site_fract_x
 _atom_site_fract_y
 _atom_site_fract_z
 _atom_site_occupancy
  Sb  Sb1  1  0.000000  0.000000  0.000000  1.0
  S  S2  1  0.500000  0.682724  0.317276  1.0
  S  S3  1  0.500000  0.317276  0.682724  1.0
  N  N4  1  0.500000  0.500000  0.500000  1.0
  Cl  Cl5  1  0.936256  0.826841  0.826841  1.0
  Cl  Cl6  1  0.000000  0.706440  0.293560  1.0
  Cl  Cl7  1  0.589939  0.173159  0.173159  1.0
  Cl  Cl8  1  0.000000  0.293560  0.706440  1.0
  Cl  Cl9  1  0.063744  0.173159  0.173159  1.0
  Cl  Cl10  1  0.410061  0.826841  0.826841  1.0
