# generated using pymatgen
data_BiPO4
_symmetry_space_group_name_H-M   'P 1'
_cell_length_a   4.78051562
_cell_length_b   4.81157684
_cell_length_c   7.28307064
_cell_angle_alpha   90.00000000
_cell_angle_beta   90.00000000
_cell_angle_gamma   94.89619167
_symmetry_Int_Tables_number   1
_chemical_formula_structural   BiPO4
_chemical_formula_sum   'Bi2 P2 O8'
_cell_volume   166.91256772
_cell_formula_units_Z   2
loop_
 _symmetry_equiv_pos_site_id
 _symmetry_equiv_pos_as_xyz
  1  'x, y, z'
loop_
 _atom_site_type_symbol
 _atom_site_label
 _atom_site_symmetry_multiplicity
 _atom_site_fract_x
 _atom_site_fract_y
 _atom_site_fract_z
 _atom_site_occupancy
  Bi  Bi1  1  0.868806  0.863067  0.499109  1.0
  Bi  Bi2  1  0.131194  0.136933  0.999109  1.0
  P  P3  1  0.340042  0.332117  0.500299  1.0
  P  P4  1  0.659958  0.667883  0.000299  1.0
  O  O5  1  0.189531  0.174684  0.334237  1.0
  O  O6  1  0.703130  0.353344  0.999760  1.0
  O  O7  1  0.810469  0.825316  0.834237  1.0
  O  O8  1  0.808699  0.824286  0.167244  1.0
  O  O9  1  0.191301  0.175714  0.667244  1.0
  O  O10  1  0.296870  0.646656  0.499760  1.0
  O  O11  1  0.659971  0.307114  0.499350  1.0
  O  O12  1  0.340029  0.692886  0.999350  1.0
