# generated using pymatgen
data_CoP2O7
_symmetry_space_group_name_H-M   'P 1'
_cell_length_a   4.56061102
_cell_length_b   5.23627546
_cell_length_c   5.23506338
_cell_angle_alpha   78.76976517
_cell_angle_beta   82.99433027
_cell_angle_gamma   96.69196472
_symmetry_Int_Tables_number   1
_chemical_formula_structural   CoP2O7
_chemical_formula_sum   'Co1 P2 O7'
_cell_volume   120.43706392
_cell_formula_units_Z   1
loop_
 _symmetry_equiv_pos_site_id
 _symmetry_equiv_pos_as_xyz
  1  'x, y, z'
loop_
 _atom_site_type_symbol
 _atom_site_label
 _atom_site_symmetry_multiplicity
 _atom_site_fract_x
 _atom_site_fract_y
 _atom_site_fract_z
 _atom_site_occupancy
  Co  Co1  1  0.724135  0.938239  0.548503  1.0
  P  P2  1  0.135340  0.802587  0.001173  1.0
  P  P3  1  0.311649  0.393058  0.410079  1.0
  O  O4  1  0.223437  0.521025  0.128750  1.0
  O  O5  1  0.425716  0.970865  0.856660  1.0
  O  O6  1  0.021246  0.248696  0.579008  1.0
  O  O7  1  0.984664  0.917877  0.217205  1.0
  O  O8  1  0.524887  0.199365  0.342357  1.0
  O  O9  1  0.460377  0.609365  0.525098  1.0
  O  O10  1  0.924519  0.735222  0.806388  1.0
