# generated using pymatgen
data_MgSi2
_symmetry_space_group_name_H-M   'P 1'
_cell_length_a   4.02462541
_cell_length_b   5.46613369
_cell_length_c   5.46613369
_cell_angle_alpha   72.46841601
_cell_angle_beta   68.39893251
_cell_angle_gamma   68.39893251
_symmetry_Int_Tables_number   1
_chemical_formula_structural   MgSi2
_chemical_formula_sum   'Mg2 Si4'
_cell_volume   102.02533925
_cell_formula_units_Z   2
loop_
 _symmetry_equiv_pos_site_id
 _symmetry_equiv_pos_as_xyz
  1  'x, y, z'
loop_
 _atom_site_type_symbol
 _atom_site_label
 _atom_site_symmetry_multiplicity
 _atom_site_fract_x
 _atom_site_fract_y
 _atom_site_fract_z
 _atom_site_occupancy
  Mg  Mg1  1  0.421018  0.328982  0.828982  1.0
  Mg  Mg2  1  0.578982  0.671018  0.171018  1.0
  Si  Si3  1  0.850190  0.088721  0.210900  1.0
  Si  Si4  1  0.149810  0.911279  0.789100  1.0
  Si  Si5  1  0.850190  0.710900  0.588721  1.0
  Si  Si6  1  0.149810  0.289100  0.411279  1.0
