# generated using pymatgen
data_ScGa2
_symmetry_space_group_name_H-M   'P 1'
_cell_length_a   4.11950337
_cell_length_b   4.14540667
_cell_length_c   6.69286990
_cell_angle_alpha   90.00000000
_cell_angle_beta   107.92387163
_cell_angle_gamma   90.00000000
_symmetry_Int_Tables_number   1
_chemical_formula_structural   ScGa2
_chemical_formula_sum   'Sc2 Ga4'
_cell_volume   108.74712442
_cell_formula_units_Z   2
loop_
 _symmetry_equiv_pos_site_id
 _symmetry_equiv_pos_as_xyz
  1  'x, y, z'
loop_
 _atom_site_type_symbol
 _atom_site_label
 _atom_site_symmetry_multiplicity
 _atom_site_fract_x
 _atom_site_fract_y
 _atom_site_fract_z
 _atom_site_occupancy
  Sc  Sc1  1  0.347053  0.000000  0.694107  1.0
  Sc  Sc2  1  0.652947  0.000000  0.305893  1.0
  Ga  Ga3  1  0.000000  0.000000  0.000000  1.0
  Ga  Ga4  1  0.500000  0.500000  0.000000  1.0
  Ga  Ga5  1  0.176604  0.500000  0.353208  1.0
  Ga  Ga6  1  0.823396  0.500000  0.646792  1.0
