# generated using pymatgen
data_ScZn12
_symmetry_space_group_name_H-M   'P 1'
_cell_length_a   5.14578098
_cell_length_b   6.75675979
_cell_length_c   6.75675980
_cell_angle_alpha   81.66276640
_cell_angle_beta   67.61752180
_cell_angle_gamma   67.61752177
_symmetry_Int_Tables_number   1
_chemical_formula_structural   ScZn12
_chemical_formula_sum   'Sc1 Zn12'
_cell_volume   200.86060765
_cell_formula_units_Z   1
loop_
 _symmetry_equiv_pos_site_id
 _symmetry_equiv_pos_as_xyz
  1  'x, y, z'
loop_
 _atom_site_type_symbol
 _atom_site_label
 _atom_site_symmetry_multiplicity
 _atom_site_fract_x
 _atom_site_fract_y
 _atom_site_fract_z
 _atom_site_occupancy
  Sc  Sc1  1  0.000000  0.000000  0.000000  1.0
  Zn  Zn2  1  0.500000  0.000000  0.500000  1.0
  Zn  Zn3  1  0.000000  0.500000  0.000000  1.0
  Zn  Zn4  1  0.500000  0.500000  0.000000  1.0
  Zn  Zn5  1  0.000000  0.000000  0.500000  1.0
  Zn  Zn6  1  0.351874  0.648126  0.648126  1.0
  Zn  Zn7  1  0.000000  0.351874  0.648126  1.0
  Zn  Zn8  1  0.000000  0.648126  0.351874  1.0
  Zn  Zn9  1  0.648126  0.351874  0.351874  1.0
  Zn  Zn10  1  0.288128  0.211872  0.211872  1.0
  Zn  Zn11  1  0.500000  0.788128  0.211872  1.0
  Zn  Zn12  1  0.500000  0.211872  0.788128  1.0
  Zn  Zn13  1  0.711872  0.788128  0.788128  1.0
