# generated using pymatgen
data_CuCl2
_symmetry_space_group_name_H-M   'P 1'
_cell_length_a   3.32175625
_cell_length_b   4.10069859
_cell_length_c   6.30069555
_cell_angle_alpha   86.20145635
_cell_angle_beta   74.71607955
_cell_angle_gamma   66.10741822
_symmetry_Int_Tables_number   1
_chemical_formula_structural   CuCl2
_chemical_formula_sum   'Cu1 Cl2'
_cell_volume   75.61509998
_cell_formula_units_Z   1
loop_
 _symmetry_equiv_pos_site_id
 _symmetry_equiv_pos_as_xyz
  1  'x, y, z'
loop_
 _atom_site_type_symbol
 _atom_site_label
 _atom_site_symmetry_multiplicity
 _atom_site_fract_x
 _atom_site_fract_y
 _atom_site_fract_z
 _atom_site_occupancy
  Cu  Cu1  1  0.000000  0.000000  0.000000  1.0
  Cl  Cl2  1  0.277272  0.220930  0.224527  1.0
  Cl  Cl3  1  0.722728  0.779070  0.775473  1.0
