# generated using pymatgen
data_Cu2SnHgSe4
_symmetry_space_group_name_H-M   'P 1'
_cell_length_a   5.92959037
_cell_length_b   5.92959037
_cell_length_c   7.16346805
_cell_angle_alpha   114.44862021
_cell_angle_beta   114.44862025
_cell_angle_gamma   90.00000002
_symmetry_Int_Tables_number   1
_chemical_formula_structural   Cu2SnHgSe4
_chemical_formula_sum   'Cu2 Sn1 Hg1 Se4'
_cell_volume   204.21675647
_cell_formula_units_Z   1
loop_
 _symmetry_equiv_pos_site_id
 _symmetry_equiv_pos_as_xyz
  1  'x, y, z'
loop_
 _atom_site_type_symbol
 _atom_site_label
 _atom_site_symmetry_multiplicity
 _atom_site_fract_x
 _atom_site_fract_y
 _atom_site_fract_z
 _atom_site_occupancy
  Cu  Cu1  1  0.250000  0.750000  0.500000  1.0
  Cu  Cu2  1  0.750000  0.250000  0.500000  1.0
  Sn  Sn3  1  0.500000  0.500000  0.000000  1.0
  Hg  Hg4  1  0.000000  0.000000  0.000000  1.0
  Se  Se5  1  0.399884  0.399884  0.285248  1.0
  Se  Se6  1  0.885364  0.885364  0.285248  1.0
  Se  Se7  1  0.114636  0.600116  0.714752  1.0
  Se  Se8  1  0.600116  0.114636  0.714752  1.0
