# generated using pymatgen
data_Ca3CoN3
_symmetry_space_group_name_H-M   'P 1'
_cell_length_a   7.16599136
_cell_length_b   7.16578895
_cell_length_c   4.97176063
_cell_angle_alpha   90.00000000
_cell_angle_beta   90.00000000
_cell_angle_gamma   120.03445299
_symmetry_Int_Tables_number   1
_chemical_formula_structural   Ca3CoN3
_chemical_formula_sum   'Ca6 Co2 N6'
_cell_volume   221.01932927
_cell_formula_units_Z   2
loop_
 _symmetry_equiv_pos_site_id
 _symmetry_equiv_pos_as_xyz
  1  'x, y, z'
loop_
 _atom_site_type_symbol
 _atom_site_label
 _atom_site_symmetry_multiplicity
 _atom_site_fract_x
 _atom_site_fract_y
 _atom_site_fract_z
 _atom_site_occupancy
  Ca  Ca1  1  0.915046  0.638342  0.250000  1.0
  Ca  Ca2  1  0.723639  0.085104  0.250000  1.0
  Ca  Ca3  1  0.361284  0.276488  0.250000  1.0
  Ca  Ca4  1  0.084954  0.361658  0.750000  1.0
  Ca  Ca5  1  0.276361  0.914896  0.750000  1.0
  Ca  Ca6  1  0.638716  0.723512  0.750000  1.0
  Co  Co7  1  0.666648  0.333273  0.750000  1.0
  Co  Co8  1  0.333352  0.666727  0.250000  1.0
  N  N9  1  0.895939  0.594996  0.750000  1.0
  N  N10  1  0.699111  0.104067  0.750000  1.0
  N  N11  1  0.405195  0.301233  0.750000  1.0
  N  N12  1  0.104061  0.405004  0.250000  1.0
  N  N13  1  0.300889  0.895933  0.250000  1.0
  N  N14  1  0.594805  0.698767  0.250000  1.0
