# generated using pymatgen
data_FeCuSe2
_symmetry_space_group_name_H-M   'P 1'
_cell_length_a   5.46258316
_cell_length_b   5.46258316
_cell_length_c   11.22997539
_cell_angle_alpha   90.00000000
_cell_angle_beta   90.00000000
_cell_angle_gamma   90.00000000
_symmetry_Int_Tables_number   1
_chemical_formula_structural   FeCuSe2
_chemical_formula_sum   'Fe4 Cu4 Se8'
_cell_volume   335.10038562
_cell_formula_units_Z   4
loop_
 _symmetry_equiv_pos_site_id
 _symmetry_equiv_pos_as_xyz
  1  'x, y, z'
loop_
 _atom_site_type_symbol
 _atom_site_label
 _atom_site_symmetry_multiplicity
 _atom_site_fract_x
 _atom_site_fract_y
 _atom_site_fract_z
 _atom_site_occupancy
  Fe  Fe1  1  0.000000  0.500000  0.999218  1.0
  Fe  Fe2  1  0.500000  0.000000  0.000782  1.0
  Fe  Fe3  1  0.000000  0.500000  0.500782  1.0
  Fe  Fe4  1  0.500000  0.000000  0.499218  1.0
  Cu  Cu5  1  0.000000  0.000000  0.000000  1.0
  Cu  Cu6  1  0.000000  0.000000  0.500000  1.0
  Cu  Cu7  1  0.000000  0.000000  0.250000  1.0
  Cu  Cu8  1  0.000000  0.000000  0.750000  1.0
  Se  Se9  1  0.260873  0.262484  0.126992  1.0
  Se  Se10  1  0.262484  0.739127  0.873008  1.0
  Se  Se11  1  0.737516  0.260873  0.873008  1.0
  Se  Se12  1  0.260873  0.737516  0.373008  1.0
  Se  Se13  1  0.739127  0.262484  0.373008  1.0
  Se  Se14  1  0.739127  0.737516  0.126992  1.0
  Se  Se15  1  0.737516  0.739127  0.626992  1.0
  Se  Se16  1  0.262484  0.260873  0.626992  1.0
