# generated using pymatgen
data_MnB4
_symmetry_space_group_name_H-M   'P 1'
_cell_length_a   2.95422339
_cell_length_b   3.84281156
_cell_length_c   3.84281156
_cell_angle_alpha   88.72395632
_cell_angle_beta   67.39498359
_cell_angle_gamma   67.39498368
_symmetry_Int_Tables_number   1
_chemical_formula_structural   MnB4
_chemical_formula_sum   'Mn1 B4'
_cell_volume   36.77497590
_cell_formula_units_Z   1
loop_
 _symmetry_equiv_pos_site_id
 _symmetry_equiv_pos_as_xyz
  1  'x, y, z'
loop_
 _atom_site_type_symbol
 _atom_site_label
 _atom_site_symmetry_multiplicity
 _atom_site_fract_x
 _atom_site_fract_y
 _atom_site_fract_z
 _atom_site_occupancy
  Mn  Mn1  1  0.000000  0.000000  0.000000  1.0
  B  B2  1  0.797082  0.862307  0.543589  1.0
  B  B3  1  0.202918  0.456411  0.137693  1.0
  B  B4  1  0.202918  0.137693  0.456411  1.0
  B  B5  1  0.797082  0.543589  0.862307  1.0
