# generated using pymatgen
data_TbNi2
_symmetry_space_group_name_H-M   'P 1'
_cell_length_a   5.06877597
_cell_length_b   5.06877597
_cell_length_c   5.06877597
_cell_angle_alpha   60.00000000
_cell_angle_beta   60.00000000
_cell_angle_gamma   60.00000000
_symmetry_Int_Tables_number   1
_chemical_formula_structural   TbNi2
_chemical_formula_sum   'Tb2 Ni4'
_cell_volume   92.08614494
_cell_formula_units_Z   2
loop_
 _symmetry_equiv_pos_site_id
 _symmetry_equiv_pos_as_xyz
  1  'x, y, z'
loop_
 _atom_site_type_symbol
 _atom_site_label
 _atom_site_symmetry_multiplicity
 _atom_site_fract_x
 _atom_site_fract_y
 _atom_site_fract_z
 _atom_site_occupancy
  Tb  Tb1  1  0.750000  0.750000  0.750000  1.0
  Tb  Tb2  1  0.000000  0.000000  0.000000  1.0
  Ni  Ni3  1  0.875000  0.375000  0.375000  1.0
  Ni  Ni4  1  0.375000  0.875000  0.375000  1.0
  Ni  Ni5  1  0.375000  0.375000  0.875000  1.0
  Ni  Ni6  1  0.375000  0.375000  0.375000  1.0
