# generated using pymatgen
data_Ca2SiO4
_symmetry_space_group_name_H-M   'P 1'
_cell_length_a   3.61022503
_cell_length_b   3.61022478
_cell_length_c   6.39333889
_cell_angle_alpha   106.40007525
_cell_angle_beta   106.40007456
_cell_angle_gamma   89.99999591
_symmetry_Int_Tables_number   1
_chemical_formula_structural   Ca2SiO4
_chemical_formula_sum   'Ca2 Si1 O4'
_cell_volume   76.39799198
_cell_formula_units_Z   1
loop_
 _symmetry_equiv_pos_site_id
 _symmetry_equiv_pos_as_xyz
  1  'x, y, z'
loop_
 _atom_site_type_symbol
 _atom_site_label
 _atom_site_symmetry_multiplicity
 _atom_site_fract_x
 _atom_site_fract_y
 _atom_site_fract_z
 _atom_site_occupancy
  Ca  Ca1  1  0.646246  0.646246  0.292493  1.0
  Ca  Ca2  1  0.353754  0.353754  0.707507  1.0
  Si  Si3  1  0.000000  0.000000  0.000000  1.0
  O  O4  1  0.500000  0.000000  0.000000  1.0
  O  O5  1  0.000000  0.500000  0.000000  1.0
  O  O6  1  0.844631  0.844631  0.689262  1.0
  O  O7  1  0.155369  0.155369  0.310738  1.0
