# generated using pymatgen
data_Al2FeIr
_symmetry_space_group_name_H-M   'P 1'
_cell_length_a   4.18663579
_cell_length_b   4.18666874
_cell_length_c   4.18666348
_cell_angle_alpha   60.00052021
_cell_angle_beta   59.99958639
_cell_angle_gamma   60.00046283
_symmetry_Int_Tables_number   1
_chemical_formula_structural   Al2FeIr
_chemical_formula_sum   'Al2 Fe1 Ir1'
_cell_volume   51.89060171
_cell_formula_units_Z   1
loop_
 _symmetry_equiv_pos_site_id
 _symmetry_equiv_pos_as_xyz
  1  'x, y, z'
loop_
 _atom_site_type_symbol
 _atom_site_label
 _atom_site_symmetry_multiplicity
 _atom_site_fract_x
 _atom_site_fract_y
 _atom_site_fract_z
 _atom_site_occupancy
  Al  Al1  1  0.500001  0.500000  0.499999  1.0
  Al  Al2  1  0.000000  0.000001  0.999999  1.0
  Fe  Fe3  1  0.249999  0.250000  0.250003  1.0
  Ir  Ir4  1  0.750000  0.750000  0.749998  1.0
