# generated using pymatgen
data_MgW3
_symmetry_space_group_name_H-M   'P 1'
_cell_length_a   5.78440832
_cell_length_b   5.78440865
_cell_length_c   4.68568620
_cell_angle_alpha   90.00000000
_cell_angle_beta   90.00000000
_cell_angle_gamma   120.00000385
_symmetry_Int_Tables_number   1
_chemical_formula_structural   MgW3
_chemical_formula_sum   'Mg2 W6'
_cell_volume   135.77559805
_cell_formula_units_Z   2
loop_
 _symmetry_equiv_pos_site_id
 _symmetry_equiv_pos_as_xyz
  1  'x, y, z'
loop_
 _atom_site_type_symbol
 _atom_site_label
 _atom_site_symmetry_multiplicity
 _atom_site_fract_x
 _atom_site_fract_y
 _atom_site_fract_z
 _atom_site_occupancy
  Mg  Mg1  1  0.666665  0.333332  0.249999  1.0
  Mg  Mg2  1  0.333334  0.666668  0.750000  1.0
  W  W3  1  0.154631  0.309261  0.249999  1.0
  W  W4  1  0.154631  0.845370  0.249999  1.0
  W  W5  1  0.690739  0.845370  0.249999  1.0
  W  W6  1  0.309260  0.154631  0.750000  1.0
  W  W7  1  0.845371  0.154631  0.750000  1.0
  W  W8  1  0.845369  0.690739  0.750000  1.0
