# generated using pymatgen
data_MgScTl
_symmetry_space_group_name_H-M   'P 1'
_cell_length_a   4.88969755
_cell_length_b   4.88969760
_cell_length_c   4.88969817
_cell_angle_alpha   59.99999623
_cell_angle_beta   59.99999588
_cell_angle_gamma   59.99999760
_symmetry_Int_Tables_number   1
_chemical_formula_structural   MgScTl
_chemical_formula_sum   'Mg1 Sc1 Tl1'
_cell_volume   82.66677943
_cell_formula_units_Z   1
loop_
 _symmetry_equiv_pos_site_id
 _symmetry_equiv_pos_as_xyz
  1  'x, y, z'
loop_
 _atom_site_type_symbol
 _atom_site_label
 _atom_site_symmetry_multiplicity
 _atom_site_fract_x
 _atom_site_fract_y
 _atom_site_fract_z
 _atom_site_occupancy
  Mg  Mg1  1  0.500000  0.500000  0.500000  1.0
  Sc  Sc2  1  0.250000  0.250000  0.250000  1.0
  Tl  Tl3  1  0.000000  0.000000  0.000000  1.0
