# generated using pymatgen
data_Be2CuIr
_symmetry_space_group_name_H-M   'P 1'
_cell_length_a   3.89148701
_cell_length_b   3.89148701
_cell_length_c   3.89148701
_cell_angle_alpha   59.95124855
_cell_angle_beta   59.95124855
_cell_angle_gamma   59.95124855
_symmetry_Int_Tables_number   1
_chemical_formula_structural   Be2CuIr
_chemical_formula_sum   'Be2 Cu1 Ir1'
_cell_volume   41.62471871
_cell_formula_units_Z   1
loop_
 _symmetry_equiv_pos_site_id
 _symmetry_equiv_pos_as_xyz
  1  'x, y, z'
loop_
 _atom_site_type_symbol
 _atom_site_label
 _atom_site_symmetry_multiplicity
 _atom_site_fract_x
 _atom_site_fract_y
 _atom_site_fract_z
 _atom_site_occupancy
  Be  Be1  1  0.500083  0.500083  0.500083  1.0
  Be  Be2  1  0.999916  0.999916  0.999916  1.0
  Cu  Cu3  1  0.249998  0.249998  0.249998  1.0
  Ir  Ir4  1  0.749999  0.749999  0.749999  1.0
