# generated using pymatgen
data_Al3Cr
_symmetry_space_group_name_H-M   'P 1'
_cell_length_a   4.84962969
_cell_length_b   4.84962969
_cell_length_c   4.84962969
_cell_angle_alpha   134.10381565
_cell_angle_beta   134.10381565
_cell_angle_gamma   66.92590261
_symmetry_Int_Tables_number   1
_chemical_formula_structural   Al3Cr
_chemical_formula_sum   'Al3 Cr1'
_cell_volume   57.85992969
_cell_formula_units_Z   1
loop_
 _symmetry_equiv_pos_site_id
 _symmetry_equiv_pos_as_xyz
  1  'x, y, z'
loop_
 _atom_site_type_symbol
 _atom_site_label
 _atom_site_symmetry_multiplicity
 _atom_site_fract_x
 _atom_site_fract_y
 _atom_site_fract_z
 _atom_site_occupancy
  Al  Al1  1  0.750001  0.249999  0.500002  1.0
  Al  Al2  1  0.249999  0.750001  0.500002  1.0
  Al  Al3  1  0.500000  0.500000  0.000000  1.0
  Cr  Cr4  1  0.000000  0.000000  0.000000  1.0
