# generated using pymatgen
data_Be2CoNi
_symmetry_space_group_name_H-M   'P 1'
_cell_length_a   3.66751863
_cell_length_b   3.66751863
_cell_length_c   3.66751863
_cell_angle_alpha   60.00000000
_cell_angle_beta   60.00000000
_cell_angle_gamma   60.00000000
_symmetry_Int_Tables_number   1
_chemical_formula_structural   Be2CoNi
_chemical_formula_sum   'Be2 Co1 Ni1'
_cell_volume   34.88204902
_cell_formula_units_Z   1
loop_
 _symmetry_equiv_pos_site_id
 _symmetry_equiv_pos_as_xyz
  1  'x, y, z'
loop_
 _atom_site_type_symbol
 _atom_site_label
 _atom_site_symmetry_multiplicity
 _atom_site_fract_x
 _atom_site_fract_y
 _atom_site_fract_z
 _atom_site_occupancy
  Be  Be1  1  0.000000  0.000000  0.000000  1.0
  Be  Be2  1  0.499999  0.499999  0.499999  1.0
  Co  Co3  1  0.250000  0.250000  0.250000  1.0
  Ni  Ni4  1  0.749999  0.749999  0.749999  1.0
