# generated using pymatgen
data_Ti2VIr
_symmetry_space_group_name_H-M   'P 1'
_cell_length_a   4.39835426
_cell_length_b   4.39836040
_cell_length_c   4.39835098
_cell_angle_alpha   59.99984056
_cell_angle_beta   59.99994794
_cell_angle_gamma   59.99993687
_symmetry_Int_Tables_number   1
_chemical_formula_structural   Ti2VIr
_chemical_formula_sum   'Ti2 V1 Ir1'
_cell_volume   60.16653507
_cell_formula_units_Z   1
loop_
 _symmetry_equiv_pos_site_id
 _symmetry_equiv_pos_as_xyz
  1  'x, y, z'
loop_
 _atom_site_type_symbol
 _atom_site_label
 _atom_site_symmetry_multiplicity
 _atom_site_fract_x
 _atom_site_fract_y
 _atom_site_fract_z
 _atom_site_occupancy
  Ti  Ti1  1  0.500001  0.500001  0.500001  1.0
  Ti  Ti2  1  0.000001  0.000000  0.000000  1.0
  V  V3  1  0.749998  0.750000  0.749999  1.0
  Ir  Ir4  1  0.250001  0.250001  0.250001  1.0
