# generated using pymatgen
data_Ti2MnRe
_symmetry_space_group_name_H-M   'P 1'
_cell_length_a   4.32910865
_cell_length_b   4.32910865
_cell_length_c   4.32910865
_cell_angle_alpha   59.98486911
_cell_angle_beta   59.98486911
_cell_angle_gamma   59.98486911
_symmetry_Int_Tables_number   1
_chemical_formula_structural   Ti2MnRe
_chemical_formula_sum   'Ti2 Mn1 Re1'
_cell_volume   57.34973726
_cell_formula_units_Z   1
loop_
 _symmetry_equiv_pos_site_id
 _symmetry_equiv_pos_as_xyz
  1  'x, y, z'
loop_
 _atom_site_type_symbol
 _atom_site_label
 _atom_site_symmetry_multiplicity
 _atom_site_fract_x
 _atom_site_fract_y
 _atom_site_fract_z
 _atom_site_occupancy
  Ti  Ti1  1  0.000001  0.000001  0.000001  1.0
  Ti  Ti2  1  0.499994  0.499994  0.499994  1.0
  Mn  Mn3  1  0.249970  0.249970  0.249970  1.0
  Re  Re4  1  0.750039  0.750039  0.750039  1.0
