# generated using pymatgen
data_Pr
_symmetry_space_group_name_H-M   'P 1'
_cell_length_a   7.45145728
_cell_length_b   7.45145727
_cell_length_c   7.45145727
_cell_angle_alpha   59.98814507
_cell_angle_beta   59.98814511
_cell_angle_gamma   59.98814511
_symmetry_Int_Tables_number   1
_chemical_formula_structural   Pr
_chemical_formula_sum   Pr8
_cell_volume   292.47711801
_cell_formula_units_Z   8
loop_
 _symmetry_equiv_pos_site_id
 _symmetry_equiv_pos_as_xyz
  1  'x, y, z'
loop_
 _atom_site_type_symbol
 _atom_site_label
 _atom_site_symmetry_multiplicity
 _atom_site_fract_x
 _atom_site_fract_y
 _atom_site_fract_z
 _atom_site_occupancy
  Pr  Pr1  1  0.252200  0.252200  0.252200  1.0
  Pr  Pr2  1  0.747800  0.747800  0.747800  1.0
  Pr  Pr3  1  0.749921  0.248208  0.749921  1.0
  Pr  Pr4  1  0.749921  0.749921  0.248208  1.0
  Pr  Pr5  1  0.248208  0.749921  0.749921  1.0
  Pr  Pr6  1  0.751792  0.250079  0.250079  1.0
  Pr  Pr7  1  0.250079  0.751792  0.250079  1.0
  Pr  Pr8  1  0.250079  0.250079  0.751792  1.0
