# generated using pymatgen
data_MgZr3
_symmetry_space_group_name_H-M   'P 1'
_cell_length_a   6.36219406
_cell_length_b   6.36219424
_cell_length_c   5.16851605
_cell_angle_alpha   90.00000000
_cell_angle_beta   90.00000000
_cell_angle_gamma   120.00000426
_symmetry_Int_Tables_number   1
_chemical_formula_structural   MgZr3
_chemical_formula_sum   'Mg2 Zr6'
_cell_volume   181.18002626
_cell_formula_units_Z   2
loop_
 _symmetry_equiv_pos_site_id
 _symmetry_equiv_pos_as_xyz
  1  'x, y, z'
loop_
 _atom_site_type_symbol
 _atom_site_label
 _atom_site_symmetry_multiplicity
 _atom_site_fract_x
 _atom_site_fract_y
 _atom_site_fract_z
 _atom_site_occupancy
  Mg  Mg1  1  0.666666  0.333333  0.249999  1.0
  Mg  Mg2  1  0.333334  0.666667  0.750000  1.0
  Zr  Zr3  1  0.168280  0.336559  0.249999  1.0
  Zr  Zr4  1  0.168280  0.831721  0.249999  1.0
  Zr  Zr5  1  0.663441  0.831721  0.249999  1.0
  Zr  Zr6  1  0.336558  0.168279  0.750000  1.0
  Zr  Zr7  1  0.831720  0.168279  0.750000  1.0
  Zr  Zr8  1  0.831721  0.663442  0.750000  1.0
