# generated using pymatgen
data_CaCdSi
_symmetry_space_group_name_H-M   'P 1'
_cell_length_a   4.72666601
_cell_length_b   4.72666231
_cell_length_c   4.72666413
_cell_angle_alpha   60.00010166
_cell_angle_beta   60.00005443
_cell_angle_gamma   60.00003906
_symmetry_Int_Tables_number   1
_chemical_formula_structural   CaCdSi
_chemical_formula_sum   'Ca1 Cd1 Si1'
_cell_volume   74.67064063
_cell_formula_units_Z   1
loop_
 _symmetry_equiv_pos_site_id
 _symmetry_equiv_pos_as_xyz
  1  'x, y, z'
loop_
 _atom_site_type_symbol
 _atom_site_label
 _atom_site_symmetry_multiplicity
 _atom_site_fract_x
 _atom_site_fract_y
 _atom_site_fract_z
 _atom_site_occupancy
  Ca  Ca1  1  0.500000  0.500000  0.500000  1.0
  Cd  Cd2  1  0.250000  0.250000  0.250000  1.0
  Si  Si3  1  0.000000  0.000000  0.000000  1.0
