# generated using pymatgen
data_ScCuPd2
_symmetry_space_group_name_H-M   'P 1'
_cell_length_a   4.46159544
_cell_length_b   4.46161279
_cell_length_c   4.46158055
_cell_angle_alpha   59.99925627
_cell_angle_beta   59.99982342
_cell_angle_gamma   59.99929129
_symmetry_Int_Tables_number   1
_chemical_formula_structural   ScCuPd2
_chemical_formula_sum   'Sc1 Cu1 Pd2'
_cell_volume   62.79867168
_cell_formula_units_Z   1
loop_
 _symmetry_equiv_pos_site_id
 _symmetry_equiv_pos_as_xyz
  1  'x, y, z'
loop_
 _atom_site_type_symbol
 _atom_site_label
 _atom_site_symmetry_multiplicity
 _atom_site_fract_x
 _atom_site_fract_y
 _atom_site_fract_z
 _atom_site_occupancy
  Sc  Sc1  1  0.749999  0.750000  0.750000  1.0
  Cu  Cu2  1  0.250002  0.250000  0.249996  1.0
  Pd  Pd3  1  0.000000  0.999996  0.000001  1.0
  Pd  Pd4  1  0.499999  0.500003  0.500003  1.0
