# generated using pymatgen
data_CsCoCl3
_symmetry_space_group_name_H-M   'P 1'
_cell_length_a   7.34094258
_cell_length_b   7.34094189
_cell_length_c   5.95003088
_cell_angle_alpha   90.00000000
_cell_angle_beta   90.00000000
_cell_angle_gamma   120.00000309
_symmetry_Int_Tables_number   1
_chemical_formula_structural   CsCoCl3
_chemical_formula_sum   'Cs2 Co2 Cl6'
_cell_volume   277.68565893
_cell_formula_units_Z   2
loop_
 _symmetry_equiv_pos_site_id
 _symmetry_equiv_pos_as_xyz
  1  'x, y, z'
loop_
 _atom_site_type_symbol
 _atom_site_label
 _atom_site_symmetry_multiplicity
 _atom_site_fract_x
 _atom_site_fract_y
 _atom_site_fract_z
 _atom_site_occupancy
  Cs  Cs1  1  0.666667  0.333333  0.250000  1.0
  Cs  Cs2  1  0.333333  0.666667  0.750000  1.0
  Co  Co3  1  0.000000  0.000000  0.000000  1.0
  Co  Co4  1  0.000000  0.000000  0.500000  1.0
  Cl  Cl5  1  0.848320  0.696640  0.750000  1.0
  Cl  Cl6  1  0.848320  0.151680  0.750000  1.0
  Cl  Cl7  1  0.151680  0.848320  0.250000  1.0
  Cl  Cl8  1  0.696640  0.848320  0.250000  1.0
  Cl  Cl9  1  0.303360  0.151680  0.750000  1.0
  Cl  Cl10  1  0.151680  0.303360  0.250000  1.0
