# generated using pymatgen
data_CaRh2
_symmetry_space_group_name_H-M   'P 1'
_cell_length_a   5.36328584
_cell_length_b   5.36328561
_cell_length_c   5.36328609
_cell_angle_alpha   60.00000325
_cell_angle_beta   60.00000472
_cell_angle_gamma   60.00000527
_symmetry_Int_Tables_number   1
_chemical_formula_structural   CaRh2
_chemical_formula_sum   'Ca2 Rh4'
_cell_volume   109.08822569
_cell_formula_units_Z   2
loop_
 _symmetry_equiv_pos_site_id
 _symmetry_equiv_pos_as_xyz
  1  'x, y, z'
loop_
 _atom_site_type_symbol
 _atom_site_label
 _atom_site_symmetry_multiplicity
 _atom_site_fract_x
 _atom_site_fract_y
 _atom_site_fract_z
 _atom_site_occupancy
  Ca  Ca1  1  0.375000  0.375000  0.375000  1.0
  Ca  Ca2  1  0.625000  0.625000  0.625000  1.0
  Rh  Rh3  1  0.000000  0.500000  0.000000  1.0
  Rh  Rh4  1  0.500000  0.000000  0.000000  1.0
  Rh  Rh5  1  0.000000  0.000000  0.000000  1.0
  Rh  Rh6  1  0.000000  0.000000  0.500000  1.0
