# generated using pymatgen
data_Mg3Cu
_symmetry_space_group_name_H-M   'P 1'
_cell_length_a   3.24659759
_cell_length_b   5.67905550
_cell_length_c   4.82167778
_cell_angle_alpha   64.88011371
_cell_angle_beta   90.00000000
_cell_angle_gamma   73.39095956
_symmetry_Int_Tables_number   1
_chemical_formula_structural   Mg3Cu
_chemical_formula_sum   'Mg3 Cu1'
_cell_volume   76.37577176
_cell_formula_units_Z   1
loop_
 _symmetry_equiv_pos_site_id
 _symmetry_equiv_pos_as_xyz
  1  'x, y, z'
loop_
 _atom_site_type_symbol
 _atom_site_label
 _atom_site_symmetry_multiplicity
 _atom_site_fract_x
 _atom_site_fract_y
 _atom_site_fract_z
 _atom_site_occupancy
  Mg  Mg1  1  0.467355  0.065292  0.401465  1.0
  Mg  Mg2  1  0.250001  0.500001  0.658827  1.0
  Mg  Mg3  1  0.032647  0.934709  0.966755  1.0
  Cu  Cu4  1  0.749999  0.500001  0.139621  1.0
