# generated using pymatgen
data_ScPPt
_symmetry_space_group_name_H-M   'P 1'
_cell_length_a   6.64498548
_cell_length_b   3.85887727
_cell_length_c   7.48330536
_cell_angle_alpha   90.00000000
_cell_angle_beta   90.00000000
_cell_angle_gamma   90.00000000
_symmetry_Int_Tables_number   1
_chemical_formula_structural   ScPPt
_chemical_formula_sum   'Sc4 P4 Pt4'
_cell_volume   191.88828869
_cell_formula_units_Z   4
loop_
 _symmetry_equiv_pos_site_id
 _symmetry_equiv_pos_as_xyz
  1  'x, y, z'
loop_
 _atom_site_type_symbol
 _atom_site_label
 _atom_site_symmetry_multiplicity
 _atom_site_fract_x
 _atom_site_fract_y
 _atom_site_fract_z
 _atom_site_occupancy
  Sc  Sc1  1  0.531649  0.749998  0.180592  1.0
  Sc  Sc2  1  0.031649  0.749998  0.319409  1.0
  Sc  Sc3  1  0.968350  0.249999  0.680592  1.0
  Sc  Sc4  1  0.468350  0.249999  0.819409  1.0
  P  P5  1  0.255034  0.249999  0.125146  1.0
  P  P6  1  0.755034  0.249999  0.374856  1.0
  P  P7  1  0.244967  0.749998  0.625146  1.0
  P  P8  1  0.744968  0.749998  0.874855  1.0
  Pt  Pt9  1  0.847536  0.249999  0.061892  1.0
  Pt  Pt10  1  0.347536  0.249999  0.438108  1.0
  Pt  Pt11  1  0.652464  0.749998  0.561894  1.0
  Pt  Pt12  1  0.152464  0.749998  0.938107  1.0
