# generated using pymatgen
data_LiMn2O4
_symmetry_space_group_name_H-M   'P 1'
_cell_length_a   5.95558900
_cell_length_b   5.95558900
_cell_length_c   5.95558900
_cell_angle_alpha   60.00000000
_cell_angle_beta   60.00000000
_cell_angle_gamma   60.00000000
_symmetry_Int_Tables_number   1
_chemical_formula_structural   LiMn2O4
_chemical_formula_sum   'Li2 Mn4 O8'
_cell_volume   149.36854807
_cell_formula_units_Z   2
loop_
 _symmetry_equiv_pos_site_id
 _symmetry_equiv_pos_as_xyz
  1  'x, y, z'
loop_
 _atom_site_type_symbol
 _atom_site_label
 _atom_site_symmetry_multiplicity
 _atom_site_fract_x
 _atom_site_fract_y
 _atom_site_fract_z
 _atom_site_occupancy
  Li  Li1  1  0.125000  0.125000  0.125000  1.0
  Li  Li2  1  0.875000  0.875000  0.875000  1.0
  Mn  Mn3  1  0.500000  0.500000  0.000000  1.0
  Mn  Mn4  1  0.500000  0.000000  0.500000  1.0
  Mn  Mn5  1  0.000000  0.500000  0.500000  1.0
  Mn  Mn6  1  0.500000  0.500000  0.500000  1.0
  O  O7  1  0.263141  0.263141  0.710576  1.0
  O  O8  1  0.263141  0.710576  0.263141  1.0
  O  O9  1  0.710576  0.263141  0.263141  1.0
  O  O10  1  0.263141  0.263141  0.263141  1.0
  O  O11  1  0.736859  0.736859  0.289424  1.0
  O  O12  1  0.736859  0.289424  0.736859  1.0
  O  O13  1  0.289424  0.736859  0.736859  1.0
  O  O14  1  0.736859  0.736859  0.736859  1.0
