# generated using pymatgen
data_Mg3In
_symmetry_space_group_name_H-M   'P 1'
_cell_length_a   5.50223802
_cell_length_b   5.50223802
_cell_length_c   5.50223802
_cell_angle_alpha   131.17304413
_cell_angle_beta   131.17304413
_cell_angle_gamma   71.53829208
_symmetry_Int_Tables_number   1
_chemical_formula_structural   Mg3In
_chemical_formula_sum   'Mg3 In1'
_cell_volume   92.35740132
_cell_formula_units_Z   1
loop_
 _symmetry_equiv_pos_site_id
 _symmetry_equiv_pos_as_xyz
  1  'x, y, z'
loop_
 _atom_site_type_symbol
 _atom_site_label
 _atom_site_symmetry_multiplicity
 _atom_site_fract_x
 _atom_site_fract_y
 _atom_site_fract_z
 _atom_site_occupancy
  Mg  Mg1  1  0.499999  0.499999  0.000000  1.0
  Mg  Mg2  1  0.749998  0.250000  0.499998  1.0
  Mg  Mg3  1  0.250000  0.749998  0.499998  1.0
  In  In4  1  0.000000  0.000000  0.000000  1.0
