# generated using pymatgen
data_Ca5Ag3
_symmetry_space_group_name_H-M   'P 1'
_cell_length_a   8.02003290
_cell_length_b   8.02010634
_cell_length_c   9.38209915
_cell_angle_alpha   115.30219302
_cell_angle_beta   115.30339511
_cell_angle_gamma   89.99999995
_symmetry_Int_Tables_number   1
_chemical_formula_structural   Ca5Ag3
_chemical_formula_sum   'Ca10 Ag6'
_cell_volume   480.75653599
_cell_formula_units_Z   2
loop_
 _symmetry_equiv_pos_site_id
 _symmetry_equiv_pos_as_xyz
  1  'x, y, z'
loop_
 _atom_site_type_symbol
 _atom_site_label
 _atom_site_symmetry_multiplicity
 _atom_site_fract_x
 _atom_site_fract_y
 _atom_site_fract_z
 _atom_site_occupancy
  Ca  Ca1  1  0.978278  0.478279  0.291233  1.0
  Ca  Ca2  1  0.687049  0.187048  0.708762  1.0
  Ca  Ca3  1  0.021722  0.521721  0.708767  1.0
  Ca  Ca4  1  0.187046  0.021721  0.708767  1.0
  Ca  Ca5  1  0.521712  0.687048  0.708762  1.0
  Ca  Ca6  1  0.812954  0.978279  0.291233  1.0
  Ca  Ca7  1  0.000000  0.000000  0.000000  1.0
  Ca  Ca8  1  0.500000  0.500000  0.000000  1.0
  Ca  Ca9  1  0.312951  0.812952  0.291238  1.0
  Ca  Ca10  1  0.478288  0.312952  0.291238  1.0
  Ag  Ag11  1  0.626824  0.126824  0.999975  1.0
  Ag  Ag12  1  0.873151  0.626824  0.999975  1.0
  Ag  Ag13  1  0.126849  0.373176  0.000025  1.0
  Ag  Ag14  1  0.373176  0.873176  0.000025  1.0
  Ag  Ag15  1  0.750000  0.750000  0.500000  1.0
  Ag  Ag16  1  0.250000  0.250000  0.500000  1.0
