# generated using pymatgen
data_AgBiSe2
_symmetry_space_group_name_H-M   'P 1'
_cell_length_a   8.29070502
_cell_length_b   11.01813324
_cell_length_c   7.24400679
_cell_angle_alpha   29.15235564
_cell_angle_beta   55.10425590
_cell_angle_gamma   41.11351243
_symmetry_Int_Tables_number   1
_chemical_formula_structural   AgBiSe2
_chemical_formula_sum   'Ag2 Bi2 Se4'
_cell_volume   204.19997107
_cell_formula_units_Z   2
loop_
 _symmetry_equiv_pos_site_id
 _symmetry_equiv_pos_as_xyz
  1  'x, y, z'
loop_
 _atom_site_type_symbol
 _atom_site_label
 _atom_site_symmetry_multiplicity
 _atom_site_fract_x
 _atom_site_fract_y
 _atom_site_fract_z
 _atom_site_occupancy
  Ag  Ag1  1  0.499941  0.000003  0.000112  1.0
  Ag  Ag2  1  0.250059  0.499997  0.999888  1.0
  Bi  Bi3  1  0.999648  0.999983  0.000733  1.0
  Bi  Bi4  1  0.750352  0.500017  0.999267  1.0
  Se  Se5  1  0.250413  0.999975  0.499306  1.0
  Se  Se6  1  0.749557  0.000015  0.500762  1.0
  Se  Se7  1  0.499587  0.500025  0.500694  1.0
  Se  Se8  1  0.000443  0.499985  0.499238  1.0
