# generated using pymatgen
data_ScInNi2
_symmetry_space_group_name_H-M   'P 1'
_cell_length_a   4.43990820
_cell_length_b   4.43990820
_cell_length_c   4.43990820
_cell_angle_alpha   59.99999998
_cell_angle_beta   59.99999999
_cell_angle_gamma   59.99999994
_symmetry_Int_Tables_number   1
_chemical_formula_structural   ScInNi2
_chemical_formula_sum   'Sc1 In1 Ni2'
_cell_volume   61.88807494
_cell_formula_units_Z   1
loop_
 _symmetry_equiv_pos_site_id
 _symmetry_equiv_pos_as_xyz
  1  'x, y, z'
loop_
 _atom_site_type_symbol
 _atom_site_label
 _atom_site_symmetry_multiplicity
 _atom_site_fract_x
 _atom_site_fract_y
 _atom_site_fract_z
 _atom_site_occupancy
  Sc  Sc1  1  0.500000  0.500000  0.500000  1.0
  In  In2  1  0.000000  0.000000  0.000000  1.0
  Ni  Ni3  1  0.750000  0.750000  0.750000  1.0
  Ni  Ni4  1  0.250000  0.250000  0.250000  1.0
