# generated using pymatgen
data_PrRe2
_symmetry_space_group_name_H-M   'P 1'
_cell_length_a   5.54254168
_cell_length_b   5.54254154
_cell_length_c   5.54254241
_cell_angle_alpha   60.00000133
_cell_angle_beta   60.00000221
_cell_angle_gamma   60.00000067
_symmetry_Int_Tables_number   1
_chemical_formula_structural   PrRe2
_chemical_formula_sum   'Pr2 Re4'
_cell_volume   120.39597422
_cell_formula_units_Z   2
loop_
 _symmetry_equiv_pos_site_id
 _symmetry_equiv_pos_as_xyz
  1  'x, y, z'
loop_
 _atom_site_type_symbol
 _atom_site_label
 _atom_site_symmetry_multiplicity
 _atom_site_fract_x
 _atom_site_fract_y
 _atom_site_fract_z
 _atom_site_occupancy
  Pr  Pr1  1  0.125000  0.125000  0.125000  1.0
  Pr  Pr2  1  0.875000  0.875000  0.875000  1.0
  Re  Re3  1  0.500000  0.500000  0.000000  1.0
  Re  Re4  1  0.500000  0.000000  0.500000  1.0
  Re  Re5  1  0.500000  0.500000  0.500000  1.0
  Re  Re6  1  0.000000  0.500000  0.500000  1.0
