# generated using pymatgen
data_ZrGa
_symmetry_space_group_name_H-M   'P 1'
_cell_length_a   3.89647073
_cell_length_b   3.89647049
_cell_length_c   10.63232423
_cell_angle_alpha   100.55836812
_cell_angle_beta   100.55836748
_cell_angle_gamma   89.99999737
_symmetry_Int_Tables_number   1
_chemical_formula_structural   ZrGa
_chemical_formula_sum   'Zr4 Ga4'
_cell_volume   155.91092366
_cell_formula_units_Z   4
loop_
 _symmetry_equiv_pos_site_id
 _symmetry_equiv_pos_as_xyz
  1  'x, y, z'
loop_
 _atom_site_type_symbol
 _atom_site_label
 _atom_site_symmetry_multiplicity
 _atom_site_fract_x
 _atom_site_fract_y
 _atom_site_fract_z
 _atom_site_occupancy
  Zr  Zr1  1  0.322341  0.572341  0.144681  1.0
  Zr  Zr2  1  0.927659  0.177659  0.355319  1.0
  Zr  Zr3  1  0.072341  0.822341  0.644681  1.0
  Zr  Zr4  1  0.677659  0.427659  0.855319  1.0
  Ga  Ga5  1  0.539952  0.289952  0.579905  1.0
  Ga  Ga6  1  0.460048  0.710048  0.420095  1.0
  Ga  Ga7  1  0.789952  0.039952  0.079905  1.0
  Ga  Ga8  1  0.210048  0.960048  0.920095  1.0
