# generated using pymatgen
data_Sb2Pd5
_symmetry_space_group_name_H-M   'P 1'
_cell_length_a   7.73873920
_cell_length_b   7.73873900
_cell_length_c   14.10340267
_cell_angle_alpha   90.00000000
_cell_angle_beta   90.00000000
_cell_angle_gamma   120.00000085
_symmetry_Int_Tables_number   1
_chemical_formula_structural   Sb2Pd5
_chemical_formula_sum   'Sb12 Pd30'
_cell_volume   731.46734792
_cell_formula_units_Z   6
loop_
 _symmetry_equiv_pos_site_id
 _symmetry_equiv_pos_as_xyz
  1  'x, y, z'
loop_
 _atom_site_type_symbol
 _atom_site_label
 _atom_site_symmetry_multiplicity
 _atom_site_fract_x
 _atom_site_fract_y
 _atom_site_fract_z
 _atom_site_occupancy
  Sb  Sb1  1  0.666667  0.333333  0.291822  1.0
  Sb  Sb2  1  0.333333  0.666667  0.791822  1.0
  Sb  Sb3  1  0.332557  0.332557  0.017074  1.0
  Sb  Sb4  1  0.000000  0.667443  0.017074  1.0
  Sb  Sb5  1  0.000000  0.000000  0.742391  1.0
  Sb  Sb6  1  0.000000  0.000000  0.242391  1.0
  Sb  Sb7  1  0.667443  0.667443  0.517074  1.0
  Sb  Sb8  1  0.332557  0.000000  0.517074  1.0
  Sb  Sb9  1  0.000000  0.332557  0.517074  1.0
  Sb  Sb10  1  0.666667  0.333333  0.791822  1.0
  Sb  Sb11  1  0.667443  0.000000  0.017074  1.0
  Sb  Sb12  1  0.333333  0.666667  0.291822  1.0
  Pd  Pd13  1  0.627777  0.627777  0.922520  1.0
  Pd  Pd14  1  0.628060  0.000000  0.212993  1.0
  Pd  Pd15  1  0.333333  0.666667  0.089613  1.0
  Pd  Pd16  1  0.737112  0.737112  0.114393  1.0
  Pd  Pd17  1  0.308319  0.000000  0.322116  1.0
  Pd  Pd18  1  0.308319  0.308319  0.822116  1.0
  Pd  Pd19  1  0.666667  0.333333  0.089613  1.0
  Pd  Pd20  1  0.262888  0.000000  0.114393  1.0
  Pd  Pd21  1  0.262888  0.262888  0.614393  1.0
  Pd  Pd22  1  0.372223  0.372223  0.422520  1.0
  Pd  Pd23  1  0.000000  0.308319  0.322116  1.0
  Pd  Pd24  1  0.000000  0.372223  0.922520  1.0
  Pd  Pd25  1  0.691681  0.691681  0.322116  1.0
  Pd  Pd26  1  0.371940  0.000000  0.712993  1.0
  Pd  Pd27  1  0.000000  0.627777  0.422520  1.0
  Pd  Pd28  1  0.666667  0.333333  0.589613  1.0
  Pd  Pd29  1  0.628060  0.628060  0.712993  1.0
  Pd  Pd30  1  0.000000  0.000000  0.945455  1.0
  Pd  Pd31  1  0.737112  0.000000  0.614393  1.0
  Pd  Pd32  1  0.000000  0.737112  0.614393  1.0
  Pd  Pd33  1  0.333333  0.666667  0.589613  1.0
  Pd  Pd34  1  0.691681  0.000000  0.822116  1.0
  Pd  Pd35  1  0.627777  0.000000  0.422520  1.0
  Pd  Pd36  1  0.000000  0.000000  0.445455  1.0
  Pd  Pd37  1  0.371940  0.371940  0.212993  1.0
  Pd  Pd38  1  0.372223  0.000000  0.922520  1.0
  Pd  Pd39  1  0.000000  0.628060  0.212993  1.0
  Pd  Pd40  1  0.000000  0.371940  0.712993  1.0
  Pd  Pd41  1  0.000000  0.691681  0.822116  1.0
  Pd  Pd42  1  0.000000  0.262888  0.114393  1.0
