# generated using pymatgen
data_Cr2ReO6
_symmetry_space_group_name_H-M   'P 1'
_cell_length_a   4.61020588
_cell_length_b   4.61020588
_cell_length_c   9.16008811
_cell_angle_alpha   90.00000000
_cell_angle_beta   90.00000000
_cell_angle_gamma   90.00000000
_symmetry_Int_Tables_number   1
_chemical_formula_structural   Cr2ReO6
_chemical_formula_sum   'Cr4 Re2 O12'
_cell_volume   194.68849671
_cell_formula_units_Z   2
loop_
 _symmetry_equiv_pos_site_id
 _symmetry_equiv_pos_as_xyz
  1  'x, y, z'
loop_
 _atom_site_type_symbol
 _atom_site_label
 _atom_site_symmetry_multiplicity
 _atom_site_fract_x
 _atom_site_fract_y
 _atom_site_fract_z
 _atom_site_occupancy
  Cr  Cr1  1  0.000000  0.000000  0.334071  1.0
  Cr  Cr2  1  0.499999  0.499999  0.834071  1.0
  Cr  Cr3  1  0.000000  0.000000  0.665929  1.0
  Cr  Cr4  1  0.499999  0.499999  0.165929  1.0
  Re  Re5  1  0.000000  0.000000  0.000000  1.0
  Re  Re6  1  0.499999  0.499999  0.500000  1.0
  O  O7  1  0.692175  0.692175  0.661984  1.0
  O  O8  1  0.307825  0.307825  0.661984  1.0
  O  O9  1  0.692175  0.692175  0.338016  1.0
  O  O10  1  0.192174  0.807826  0.161984  1.0
  O  O11  1  0.807826  0.192174  0.161984  1.0
  O  O12  1  0.807826  0.192174  0.838016  1.0
  O  O13  1  0.294809  0.294809  0.000000  1.0
  O  O14  1  0.205190  0.794810  0.500000  1.0
  O  O15  1  0.794810  0.205190  0.500000  1.0
  O  O16  1  0.192174  0.807826  0.838016  1.0
  O  O17  1  0.307825  0.307825  0.338016  1.0
  O  O18  1  0.705192  0.705192  0.000000  1.0
