# generated using pymatgen
data_AgBiS2
_symmetry_space_group_name_H-M   'P 1'
_cell_length_a   4.04974521
_cell_length_b   4.04974500
_cell_length_c   6.78526086
_cell_angle_alpha   72.63713393
_cell_angle_beta   72.63713254
_cell_angle_gamma   59.99999353
_symmetry_Int_Tables_number   1
_chemical_formula_structural   AgBiS2
_chemical_formula_sum   'Ag1 Bi1 S2'
_cell_volume   90.46993495
_cell_formula_units_Z   1
loop_
 _symmetry_equiv_pos_site_id
 _symmetry_equiv_pos_as_xyz
  1  'x, y, z'
loop_
 _atom_site_type_symbol
 _atom_site_label
 _atom_site_symmetry_multiplicity
 _atom_site_fract_x
 _atom_site_fract_y
 _atom_site_fract_z
 _atom_site_occupancy
  Ag  Ag1  1  0.500000  0.500000  0.500000  1.0
  Bi  Bi2  1  0.000000  0.000000  0.000000  1.0
  S  S3  1  0.752593  0.752593  0.742221  1.0
  S  S4  1  0.247407  0.247407  0.257779  1.0
