# generated using pymatgen
data_Mg2PN3
_symmetry_space_group_name_H-M   'P 1'
_cell_length_a   4.76123452
_cell_length_b   5.65987907
_cell_length_c   5.65987907
_cell_angle_alpha   119.60689791
_cell_angle_beta   90.00000000
_cell_angle_gamma   90.00000000
_symmetry_Int_Tables_number   1
_chemical_formula_structural   Mg2PN3
_chemical_formula_sum   'Mg4 P2 N6'
_cell_volume   132.60845807
_cell_formula_units_Z   2
loop_
 _symmetry_equiv_pos_site_id
 _symmetry_equiv_pos_as_xyz
  1  'x, y, z'
loop_
 _atom_site_type_symbol
 _atom_site_label
 _atom_site_symmetry_multiplicity
 _atom_site_fract_x
 _atom_site_fract_y
 _atom_site_fract_z
 _atom_site_occupancy
  Mg  Mg1  1  0.472268  0.829198  0.502914  1.0
  Mg  Mg2  1  0.472268  0.502914  0.829198  1.0
  Mg  Mg3  1  0.972268  0.170802  0.497086  1.0
  Mg  Mg4  1  0.972268  0.497086  0.170802  1.0
  P  P5  1  0.491315  0.161663  0.161663  1.0
  P  P6  1  0.991315  0.838337  0.838337  1.0
  N  N7  1  0.344570  0.890487  0.890487  1.0
  N  N8  1  0.844570  0.109513  0.109513  1.0
  N  N9  1  0.419739  0.162451  0.443366  1.0
  N  N10  1  0.919739  0.837549  0.556634  1.0
  N  N11  1  0.419739  0.443366  0.162451  1.0
  N  N12  1  0.919739  0.556634  0.837549  1.0
