# generated using pymatgen
data_ZnCN2
_symmetry_space_group_name_H-M   'P 1'
_cell_length_a   8.99961100
_cell_length_b   8.99961100
_cell_length_c   5.41808100
_cell_angle_alpha   90.00000000
_cell_angle_beta   90.00000000
_cell_angle_gamma   90.00000000
_symmetry_Int_Tables_number   1
_chemical_formula_structural   ZnCN2
_chemical_formula_sum   'Zn8 C8 N16'
_cell_volume   438.82662442
_cell_formula_units_Z   8
loop_
 _symmetry_equiv_pos_site_id
 _symmetry_equiv_pos_as_xyz
  1  'x, y, z'
loop_
 _atom_site_type_symbol
 _atom_site_label
 _atom_site_symmetry_multiplicity
 _atom_site_fract_x
 _atom_site_fract_y
 _atom_site_fract_z
 _atom_site_occupancy
  Zn  Zn1  1  0.046686  0.750000  0.875000  1.0
  Zn  Zn2  1  0.250000  0.046686  0.125000  1.0
  Zn  Zn3  1  0.750000  0.953314  0.125000  1.0
  Zn  Zn4  1  0.953314  0.250000  0.875000  1.0
  Zn  Zn5  1  0.546686  0.250000  0.375000  1.0
  Zn  Zn6  1  0.750000  0.546686  0.625000  1.0
  Zn  Zn7  1  0.250000  0.453314  0.625000  1.0
  Zn  Zn8  1  0.453314  0.750000  0.375000  1.0
  C  C9  1  0.071140  0.250000  0.375000  1.0
  C  C10  1  0.750000  0.071140  0.625000  1.0
  C  C11  1  0.928860  0.750000  0.375000  1.0
  C  C12  1  0.250000  0.928860  0.625000  1.0
  C  C13  1  0.571140  0.750000  0.875000  1.0
  C  C14  1  0.250000  0.571140  0.125000  1.0
  C  C15  1  0.428860  0.250000  0.875000  1.0
  C  C16  1  0.750000  0.428860  0.125000  1.0
  N  N17  1  0.190903  0.925246  0.830260  1.0
  N  N18  1  0.925246  0.809097  0.169740  1.0
  N  N19  1  0.809097  0.074754  0.830260  1.0
  N  N20  1  0.074754  0.190903  0.169740  1.0
  N  N21  1  0.309097  0.925246  0.419740  1.0
  N  N22  1  0.074754  0.309097  0.580260  1.0
  N  N23  1  0.925246  0.690903  0.580260  1.0
  N  N24  1  0.690903  0.074754  0.419740  1.0
  N  N25  1  0.690903  0.425246  0.330260  1.0
  N  N26  1  0.425246  0.309097  0.669740  1.0
  N  N27  1  0.309097  0.574754  0.330260  1.0
  N  N28  1  0.574754  0.690903  0.669740  1.0
  N  N29  1  0.809097  0.425246  0.919740  1.0
  N  N30  1  0.574754  0.809097  0.080260  1.0
  N  N31  1  0.425246  0.190903  0.080260  1.0
  N  N32  1  0.190903  0.574754  0.919740  1.0
