# generated using pymatgen
data_Ca4ZrN4
_symmetry_space_group_name_H-M   'P 1'
_cell_length_a   6.15583447
_cell_length_b   6.15671598
_cell_length_c   9.34454672
_cell_angle_alpha   84.43260868
_cell_angle_beta   109.20622508
_cell_angle_gamma   111.46899985
_symmetry_Int_Tables_number   1
_chemical_formula_structural   Ca4ZrN4
_chemical_formula_sum   'Ca8 Zr2 N8'
_cell_volume   311.12831782
_cell_formula_units_Z   2
loop_
 _symmetry_equiv_pos_site_id
 _symmetry_equiv_pos_as_xyz
  1  'x, y, z'
loop_
 _atom_site_type_symbol
 _atom_site_label
 _atom_site_symmetry_multiplicity
 _atom_site_fract_x
 _atom_site_fract_y
 _atom_site_fract_z
 _atom_site_occupancy
  Ca  Ca1  1  0.815493  0.271806  0.195563  1.0
  Ca  Ca2  1  0.184507  0.728194  0.804437  1.0
  Ca  Ca3  1  0.237935  0.243352  0.994063  1.0
  Ca  Ca4  1  0.762065  0.756648  0.005937  1.0
  Ca  Ca5  1  0.050116  0.262456  0.574556  1.0
  Ca  Ca6  1  0.949884  0.737544  0.425444  1.0
  Ca  Ca7  1  0.537160  0.751531  0.594666  1.0
  Ca  Ca8  1  0.462840  0.248469  0.405334  1.0
  Zr  Zr9  1  0.607445  0.279537  0.765499  1.0
  Zr  Zr10  1  0.392555  0.720463  0.234501  1.0
  N  N11  1  0.314082  0.013295  0.615327  1.0
  N  N12  1  0.685918  0.986705  0.384673  1.0
  N  N13  1  0.812164  0.156664  0.958088  1.0
  N  N14  1  0.187836  0.843336  0.041912  1.0
  N  N15  1  0.423369  0.488944  0.801718  1.0
  N  N16  1  0.576631  0.511056  0.198282  1.0
  N  N17  1  0.197040  0.513836  0.379879  1.0
  N  N18  1  0.802960  0.486164  0.620121  1.0
