# generated using pymatgen
data_VMoO5
_symmetry_space_group_name_H-M   'P 1'
_cell_length_a   3.82562055
_cell_length_b   5.25396111
_cell_length_c   5.15785957
_cell_angle_alpha   93.32778533
_cell_angle_beta   111.79609645
_cell_angle_gamma   68.73245261
_symmetry_Int_Tables_number   1
_chemical_formula_structural   VMoO5
_chemical_formula_sum   'V1 Mo1 O5'
_cell_volume   89.35179061
_cell_formula_units_Z   1
loop_
 _symmetry_equiv_pos_site_id
 _symmetry_equiv_pos_as_xyz
  1  'x, y, z'
loop_
 _atom_site_type_symbol
 _atom_site_label
 _atom_site_symmetry_multiplicity
 _atom_site_fract_x
 _atom_site_fract_y
 _atom_site_fract_z
 _atom_site_occupancy
  V  V1  1  0.861576  0.649202  0.228827  1.0
  Mo  Mo2  1  0.306867  0.335496  0.807814  1.0
  O  O3  1  0.974468  0.752514  0.554008  1.0
  O  O4  1  0.340808  0.587537  0.125537  1.0
  O  O5  1  0.562938  0.001463  0.985408  1.0
  O  O6  1  0.159268  0.266049  0.445170  1.0
  O  O7  1  0.794074  0.407740  0.853237  1.0
