# generated using pymatgen
data_Sr2NbN3
_symmetry_space_group_name_H-M   'P 1'
_cell_length_a   6.09391692
_cell_length_b   6.42264710
_cell_length_c   12.65584529
_cell_angle_alpha   88.81984761
_cell_angle_beta   87.51176490
_cell_angle_gamma   61.67915465
_symmetry_Int_Tables_number   1
_chemical_formula_structural   Sr2NbN3
_chemical_formula_sum   'Sr8 Nb4 N12'
_cell_volume   435.63740020
_cell_formula_units_Z   4
loop_
 _symmetry_equiv_pos_site_id
 _symmetry_equiv_pos_as_xyz
  1  'x, y, z'
loop_
 _atom_site_type_symbol
 _atom_site_label
 _atom_site_symmetry_multiplicity
 _atom_site_fract_x
 _atom_site_fract_y
 _atom_site_fract_z
 _atom_site_occupancy
  Sr  Sr1  1  0.388628  0.768956  0.422537  1.0
  Sr  Sr2  1  0.944147  0.597148  0.641129  1.0
  Sr  Sr3  1  0.541296  0.402852  0.141129  1.0
  Sr  Sr4  1  0.055853  0.402852  0.358871  1.0
  Sr  Sr5  1  0.611372  0.231044  0.577463  1.0
  Sr  Sr6  1  0.157584  0.231044  0.922537  1.0
  Sr  Sr7  1  0.842416  0.768956  0.077463  1.0
  Sr  Sr8  1  0.458704  0.597148  0.858871  1.0
  Nb  Nb9  1  0.768958  0.997025  0.836528  1.0
  Nb  Nb10  1  0.234016  0.997025  0.663472  1.0
  Nb  Nb11  1  0.231042  0.002975  0.163472  1.0
  Nb  Nb12  1  0.765984  0.002975  0.336528  1.0
  N  N13  1  0.504416  0.991169  0.750000  1.0
  N  N14  1  0.495584  0.008831  0.250000  1.0
  N  N15  1  0.911066  0.177868  0.750000  1.0
  N  N16  1  0.088934  0.822132  0.250000  1.0
  N  N17  1  0.324818  0.675764  0.623173  1.0
  N  N18  1  0.999417  0.675764  0.876827  1.0
  N  N19  1  0.675182  0.324236  0.376827  1.0
  N  N20  1  0.000583  0.324236  0.123173  1.0
  N  N21  1  0.612866  0.187076  0.959404  1.0
  N  N22  1  0.799942  0.812924  0.459404  1.0
  N  N23  1  0.387134  0.812924  0.040596  1.0
  N  N24  1  0.200058  0.187076  0.540596  1.0
