# generated using pymatgen
data_CrS2
_symmetry_space_group_name_H-M   'P 1'
_cell_length_a   7.89246930
_cell_length_b   7.89246945
_cell_length_c   7.89246924
_cell_angle_alpha   22.38854499
_cell_angle_beta   22.38854896
_cell_angle_gamma   22.38854935
_symmetry_Int_Tables_number   1
_chemical_formula_structural   CrS2
_chemical_formula_sum   'Cr1 S2'
_cell_volume   62.55285159
_cell_formula_units_Z   1
loop_
 _symmetry_equiv_pos_site_id
 _symmetry_equiv_pos_as_xyz
  1  'x, y, z'
loop_
 _atom_site_type_symbol
 _atom_site_label
 _atom_site_symmetry_multiplicity
 _atom_site_fract_x
 _atom_site_fract_y
 _atom_site_fract_z
 _atom_site_occupancy
  Cr  Cr1  1  0.000000  0.000000  0.000000  1.0
  S  S2  1  0.602713  0.602713  0.602713  1.0
  S  S3  1  0.397287  0.397287  0.397287  1.0
