# generated using pymatgen
data_CsHO
_symmetry_space_group_name_H-M   'P 1'
_cell_length_a   6.44572037
_cell_length_b   6.44572037
_cell_length_c   4.54656085
_cell_angle_alpha   90.00000000
_cell_angle_beta   90.00000000
_cell_angle_gamma   40.75648479
_symmetry_Int_Tables_number   1
_chemical_formula_structural   CsHO
_chemical_formula_sum   'Cs2 H2 O2'
_cell_volume   123.32080135
_cell_formula_units_Z   2
loop_
 _symmetry_equiv_pos_site_id
 _symmetry_equiv_pos_as_xyz
  1  'x, y, z'
loop_
 _atom_site_type_symbol
 _atom_site_label
 _atom_site_symmetry_multiplicity
 _atom_site_fract_x
 _atom_site_fract_y
 _atom_site_fract_z
 _atom_site_occupancy
  Cs  Cs1  1  0.140012  0.140012  0.259084  1.0
  Cs  Cs2  1  0.859988  0.859988  0.759084  1.0
  H  H3  1  0.451370  0.451370  0.382763  1.0
  H  H4  1  0.548630  0.548630  0.882763  1.0
  O  O5  1  0.387948  0.387948  0.248437  1.0
  O  O6  1  0.612052  0.612052  0.748437  1.0
