# generated using pymatgen
data_Al2O3
_symmetry_space_group_name_H-M   'P 1'
_cell_length_a   3.03472800
_cell_length_b   6.09211387
_cell_length_c   3.03472840
_cell_angle_alpha   104.42250151
_cell_angle_beta   60.00000433
_cell_angle_gamma   104.42249806
_symmetry_Int_Tables_number   1
_chemical_formula_structural   Al2O3
_chemical_formula_sum   'Al2 O3'
_cell_volume   46.53615471
_cell_formula_units_Z   1
loop_
 _symmetry_equiv_pos_site_id
 _symmetry_equiv_pos_as_xyz
  1  'x, y, z'
loop_
 _atom_site_type_symbol
 _atom_site_label
 _atom_site_symmetry_multiplicity
 _atom_site_fract_x
 _atom_site_fract_y
 _atom_site_fract_z
 _atom_site_occupancy
  Al  Al1  1  0.192889  0.578667  0.192889  1.0
  Al  Al2  1  0.693184  0.079552  0.693184  1.0
  O  O3  1  0.028330  0.084990  0.028330  1.0
  O  O4  1  0.582117  0.746352  0.582117  1.0
  O  O5  1  0.806480  0.419439  0.806480  1.0
