# generated using pymatgen
data_NbO2F
_symmetry_space_group_name_H-M   'P 1'
_cell_length_a   5.42385221
_cell_length_b   5.66847873
_cell_length_c   5.42385225
_cell_angle_alpha   119.65127461
_cell_angle_beta   61.60408906
_cell_angle_gamma   119.65127047
_symmetry_Int_Tables_number   1
_chemical_formula_structural   NbO2F
_chemical_formula_sum   'Nb2 O4 F2'
_cell_volume   119.91749763
_cell_formula_units_Z   2
loop_
 _symmetry_equiv_pos_site_id
 _symmetry_equiv_pos_as_xyz
  1  'x, y, z'
loop_
 _atom_site_type_symbol
 _atom_site_label
 _atom_site_symmetry_multiplicity
 _atom_site_fract_x
 _atom_site_fract_y
 _atom_site_fract_z
 _atom_site_occupancy
  Nb  Nb1  1  0.688511  0.141968  0.748082  1.0
  Nb  Nb2  1  0.248082  0.641968  0.188511  1.0
  O  O3  1  0.038720  0.414108  0.897372  1.0
  O  O4  1  0.463431  0.399531  0.049469  1.0
  O  O5  1  0.397372  0.914108  0.538720  1.0
  O  O6  1  0.549469  0.899531  0.963431  1.0
  F  F7  1  0.889252  0.408041  0.467594  1.0
  F  F8  1  0.967594  0.908041  0.389252  1.0
