# generated using pymatgen
data_Fe2O3
_symmetry_space_group_name_H-M   'P 1'
_cell_length_a   8.23585373
_cell_length_b   8.23241675
_cell_length_c   8.22394996
_cell_angle_alpha   71.06873740
_cell_angle_beta   109.56382666
_cell_angle_gamma   70.17116454
_symmetry_Int_Tables_number   1
_chemical_formula_structural   Fe2O3
_chemical_formula_sum   'Fe16 O24'
_cell_volume   429.68827388
_cell_formula_units_Z   8
loop_
 _symmetry_equiv_pos_site_id
 _symmetry_equiv_pos_as_xyz
  1  'x, y, z'
loop_
 _atom_site_type_symbol
 _atom_site_label
 _atom_site_symmetry_multiplicity
 _atom_site_fract_x
 _atom_site_fract_y
 _atom_site_fract_z
 _atom_site_occupancy
  Fe  Fe1  1  0.786070  0.968219  0.249597  1.0
  Fe  Fe2  1  0.462866  0.751243  0.213078  1.0
  Fe  Fe3  1  0.212963  0.037702  0.750711  1.0
  Fe  Fe4  1  0.247812  0.784010  0.465117  1.0
  Fe  Fe5  1  0.291592  0.460191  0.251467  1.0
  Fe  Fe6  1  0.751887  0.216628  0.539392  1.0
  Fe  Fe7  1  0.243335  0.288806  0.961015  1.0
  Fe  Fe8  1  0.747662  0.717625  0.033882  1.0
  Fe  Fe9  1  0.712504  0.537876  0.749767  1.0
  Fe  Fe10  1  0.040149  0.249047  0.288938  1.0
  Fe  Fe11  1  0.961328  0.749139  0.712990  1.0
  Fe  Fe12  1  0.535806  0.252130  0.785641  1.0
  Fe  Fe13  1  0.999183  0.501284  0.495860  1.0
  Fe  Fe14  1  0.000091  0.996605  0.000820  1.0
  Fe  Fe15  1  0.501697  0.499565  0.001037  1.0
  Fe  Fe16  1  0.500053  0.998447  0.498233  1.0
  O  O17  1  0.992539  0.046123  0.231404  1.0
  O  O18  1  0.224486  0.727548  0.229768  1.0
  O  O19  1  0.730953  0.775220  0.773762  1.0
  O  O20  1  0.724298  0.001499  0.452217  1.0
  O  O21  1  0.225637  0.042742  0.004683  1.0
  O  O22  1  0.952545  0.275457  0.494503  1.0
  O  O23  1  0.549583  0.457408  0.272909  1.0
  O  O24  1  0.454774  0.773320  0.952206  1.0
  O  O25  1  0.766956  0.959737  0.992139  1.0
  O  O26  1  0.050567  0.499563  0.274707  1.0
  O  O27  1  0.223886  0.544915  0.960233  1.0
  O  O28  1  0.494896  0.235823  0.539434  1.0
  O  O29  1  0.274923  0.995468  0.547272  1.0
  O  O30  1  0.507140  0.763478  0.459274  1.0
  O  O31  1  0.773702  0.274438  0.767323  1.0
  O  O32  1  0.451433  0.543447  0.724120  1.0
  O  O33  1  0.545846  0.230037  0.046046  1.0
  O  O34  1  0.957885  0.492353  0.732873  1.0
  O  O35  1  0.776056  0.458427  0.042057  1.0
  O  O36  1  0.277293  0.262062  0.732619  1.0
  O  O37  1  0.048368  0.723635  0.508514  1.0
  O  O38  1  0.727391  0.732186  0.270630  1.0
  O  O39  1  0.004288  0.954221  0.768091  1.0
  O  O40  1  0.269555  0.222373  0.225675  1.0
