# generated using pymatgen
data_CIN
_symmetry_space_group_name_H-M   'P 1'
_cell_length_a   4.70328735
_cell_length_b   4.70328735
_cell_length_c   4.70328735
_cell_angle_alpha   103.89872459
_cell_angle_beta   103.89872468
_cell_angle_gamma   103.89872456
_symmetry_Int_Tables_number   1
_chemical_formula_structural   CIN
_chemical_formula_sum   'C1 I1 N1'
_cell_volume   93.00958623
_cell_formula_units_Z   1
loop_
 _symmetry_equiv_pos_site_id
 _symmetry_equiv_pos_as_xyz
  1  'x, y, z'
loop_
 _atom_site_type_symbol
 _atom_site_label
 _atom_site_symmetry_multiplicity
 _atom_site_fract_x
 _atom_site_fract_y
 _atom_site_fract_z
 _atom_site_occupancy
  C  C1  1  0.341698  0.341698  0.341698  1.0
  I  I2  1  0.997259  0.997259  0.997259  1.0
  N  N3  1  0.541043  0.541043  0.541043  1.0
