# generated using pymatgen
data_Rb2PbO3
_symmetry_space_group_name_H-M   'P 1'
_cell_length_a   6.14072952
_cell_length_b   6.70683119
_cell_length_c   6.70683118
_cell_angle_alpha   111.47066255
_cell_angle_beta   90.00000000
_cell_angle_gamma   90.00000000
_symmetry_Int_Tables_number   1
_chemical_formula_structural   Rb2PbO3
_chemical_formula_sum   'Rb4 Pb2 O6'
_cell_volume   257.05150462
_cell_formula_units_Z   2
loop_
 _symmetry_equiv_pos_site_id
 _symmetry_equiv_pos_as_xyz
  1  'x, y, z'
loop_
 _atom_site_type_symbol
 _atom_site_label
 _atom_site_symmetry_multiplicity
 _atom_site_fract_x
 _atom_site_fract_y
 _atom_site_fract_z
 _atom_site_occupancy
  Rb  Rb1  1  0.259044  0.481491  0.808621  1.0
  Rb  Rb2  1  0.759044  0.191379  0.518509  1.0
  Rb  Rb3  1  0.759044  0.518509  0.191379  1.0
  Rb  Rb4  1  0.259044  0.808621  0.481491  1.0
  Pb  Pb5  1  0.738537  0.906656  0.906656  1.0
  Pb  Pb6  1  0.238537  0.093344  0.093344  1.0
  O  O7  1  0.693373  0.636265  0.636265  1.0
  O  O8  1  0.193373  0.363735  0.363735  1.0
  O  O9  1  0.995001  0.856416  0.116558  1.0
  O  O10  1  0.495001  0.143584  0.883442  1.0
  O  O11  1  0.995001  0.116558  0.856416  1.0
  O  O12  1  0.495001  0.883442  0.143584  1.0
