# generated using pymatgen
data_LiScAs2O7
_symmetry_space_group_name_H-M   'P 1'
_cell_length_a   4.92034231
_cell_length_b   5.54527429
_cell_length_c   5.54531476
_cell_angle_alpha   103.08604730
_cell_angle_beta   98.62427633
_cell_angle_gamma   98.62512083
_symmetry_Int_Tables_number   1
_chemical_formula_structural   LiScAs2O7
_chemical_formula_sum   'Li1 Sc1 As2 O7'
_cell_volume   143.02447870
_cell_formula_units_Z   1
loop_
 _symmetry_equiv_pos_site_id
 _symmetry_equiv_pos_as_xyz
  1  'x, y, z'
loop_
 _atom_site_type_symbol
 _atom_site_label
 _atom_site_symmetry_multiplicity
 _atom_site_fract_x
 _atom_site_fract_y
 _atom_site_fract_z
 _atom_site_occupancy
  Li  Li1  1  0.500000  0.248666  0.751333  1.0
  Sc  Sc2  1  0.500001  0.629497  0.370508  1.0
  As  As3  1  0.908882  0.179702  0.253873  1.0
  As  As4  1  0.091118  0.746123  0.820301  1.0
  O  O5  1  0.220942  0.334414  0.443810  1.0
  O  O6  1  0.749001  0.965367  0.386237  1.0
  O  O7  1  0.000000  0.036405  0.963594  1.0
  O  O8  1  0.313509  0.858980  0.644756  1.0
  O  O9  1  0.686490  0.355246  0.141020  1.0
  O  O10  1  0.779058  0.556186  0.665584  1.0
  O  O11  1  0.250999  0.613762  0.034634  1.0
