# generated using pymatgen
data_Mg2VN3
_symmetry_space_group_name_H-M   'P 1'
_cell_length_a   5.75123936
_cell_length_b   5.82287071
_cell_length_c   5.11987685
_cell_angle_alpha   90.00000000
_cell_angle_beta   90.00000000
_cell_angle_gamma   120.41286550
_symmetry_Int_Tables_number   1
_chemical_formula_structural   Mg2VN3
_chemical_formula_sum   'Mg4 V2 N6'
_cell_volume   147.86550226
_cell_formula_units_Z   2
loop_
 _symmetry_equiv_pos_site_id
 _symmetry_equiv_pos_as_xyz
  1  'x, y, z'
loop_
 _atom_site_type_symbol
 _atom_site_label
 _atom_site_symmetry_multiplicity
 _atom_site_fract_x
 _atom_site_fract_y
 _atom_site_fract_z
 _atom_site_occupancy
  Mg  Mg1  1  0.329768  0.331209  0.478661  1.0
  Mg  Mg2  1  0.670232  0.001441  0.478661  1.0
  Mg  Mg3  1  0.670232  0.668791  0.978661  1.0
  Mg  Mg4  1  0.329768  0.998559  0.978661  1.0
  V  V5  1  0.000000  0.663435  0.482309  1.0
  V  V6  1  0.000000  0.336565  0.982309  1.0
  N  N7  1  0.297264  0.332306  0.893216  1.0
  N  N8  1  0.702736  0.035041  0.893216  1.0
  N  N9  1  0.702736  0.667694  0.393216  1.0
  N  N10  1  0.297264  0.964959  0.393216  1.0
  N  N11  1  0.000000  0.636495  0.845937  1.0
  N  N12  1  0.000000  0.363505  0.345937  1.0
