# generated using pymatgen
data_Na2CdSnS4
_symmetry_space_group_name_H-M   'P 1'
_cell_length_a   6.50319286
_cell_length_b   6.46666496
_cell_length_c   7.02440169
_cell_angle_alpha   118.49341448
_cell_angle_beta   118.65691216
_cell_angle_gamma   87.92535309
_symmetry_Int_Tables_number   1
_chemical_formula_structural   Na2CdSnS4
_chemical_formula_sum   'Na2 Cd1 Sn1 S4'
_cell_volume   220.60335253
_cell_formula_units_Z   1
loop_
 _symmetry_equiv_pos_site_id
 _symmetry_equiv_pos_as_xyz
  1  'x, y, z'
loop_
 _atom_site_type_symbol
 _atom_site_label
 _atom_site_symmetry_multiplicity
 _atom_site_fract_x
 _atom_site_fract_y
 _atom_site_fract_z
 _atom_site_occupancy
  Na  Na1  1  0.523980  0.023980  0.047959  1.0
  Na  Na2  1  0.777702  0.777702  0.555404  1.0
  Cd  Cd3  1  0.011244  0.511244  0.022487  1.0
  Sn  Sn4  1  0.261340  0.261340  0.522680  1.0
  S  S5  1  0.924135  0.375276  0.271360  1.0
  S  S6  1  0.613265  0.594405  0.767324  1.0
  S  S7  1  0.154060  0.172919  0.767324  1.0
  S  S8  1  0.347225  0.896084  0.271360  1.0
