# generated using pymatgen
data_Al2O3
_symmetry_space_group_name_H-M   'P 1'
_cell_length_a   5.66027174
_cell_length_b   5.65178776
_cell_length_c   17.15951431
_cell_angle_alpha   59.91099552
_cell_angle_beta   60.68271146
_cell_angle_gamma   59.69176156
_symmetry_Int_Tables_number   1
_chemical_formula_structural   Al2O3
_chemical_formula_sum   'Al16 O24'
_cell_volume   388.93468068
_cell_formula_units_Z   8
loop_
 _symmetry_equiv_pos_site_id
 _symmetry_equiv_pos_as_xyz
  1  'x, y, z'
loop_
 _atom_site_type_symbol
 _atom_site_label
 _atom_site_symmetry_multiplicity
 _atom_site_fract_x
 _atom_site_fract_y
 _atom_site_fract_z
 _atom_site_occupancy
  Al  Al1  1  0.990580  0.000634  0.169666  1.0
  Al  Al2  1  0.128383  0.640777  0.034122  1.0
  Al  Al3  1  0.612308  0.143362  0.047087  1.0
  Al  Al4  1  0.613054  0.610311  0.048427  1.0
  Al  Al5  1  0.114744  0.120207  0.377757  1.0
  Al  Al6  1  0.617604  0.120653  0.376895  1.0
  Al  Al7  1  0.615335  0.624361  0.213034  1.0
  Al  Al8  1  0.263042  0.243227  0.579258  1.0
  Al  Al9  1  0.210939  0.283984  0.757711  1.0
  Al  Al10  1  0.617405  0.623862  0.376409  1.0
  Al  Al11  1  0.594822  0.615273  0.549138  1.0
  Al  Al12  1  0.113286  0.621737  0.378456  1.0
  Al  Al13  1  0.775660  0.026114  0.701820  1.0
  Al  Al14  1  0.591409  0.134794  0.881984  1.0
  Al  Al15  1  0.605764  0.654029  0.707337  1.0
  Al  Al16  1  0.648035  0.619994  0.881349  1.0
  O  O17  1  0.361461  0.406512  0.110572  1.0
  O  O18  1  0.378672  0.862255  0.133884  1.0
  O  O19  1  0.358963  0.370946  0.307751  1.0
  O  O20  1  0.359960  0.844382  0.306860  1.0
  O  O21  1  0.375649  0.379641  0.453176  1.0
  O  O22  1  0.846657  0.394730  0.132525  1.0
  O  O23  1  0.847032  0.866699  0.131668  1.0
  O  O24  1  0.391772  0.356611  0.626997  1.0
  O  O25  1  0.402096  0.870850  0.448443  1.0
  O  O26  1  0.829151  0.374602  0.305485  1.0
  O  O27  1  0.422012  0.376383  0.781228  1.0
  O  O28  1  0.410187  0.857552  0.618154  1.0
  O  O29  1  0.857401  0.870198  0.298290  1.0
  O  O30  1  0.868835  0.401858  0.447591  1.0
  O  O31  1  0.874253  0.877447  0.445439  1.0
  O  O32  1  0.393936  0.387475  0.957491  1.0
  O  O33  1  0.426735  0.898466  0.781990  1.0
  O  O34  1  0.872150  0.356721  0.620856  1.0
  O  O35  1  0.388154  0.863878  0.960805  1.0
  O  O36  1  0.832726  0.371926  0.808279  1.0
  O  O37  1  0.892429  0.797011  0.642116  1.0
  O  O38  1  0.845494  0.879772  0.810337  1.0
  O  O39  1  0.831709  0.380266  0.972722  1.0
  O  O40  1  0.820195  0.870501  0.983557  1.0
