# generated using pymatgen
data_U2Mo
_symmetry_space_group_name_H-M   'P 1'
_cell_length_a   3.43032697
_cell_length_b   3.43032698
_cell_length_c   5.42677671
_cell_angle_alpha   108.42455466
_cell_angle_beta   108.42455477
_cell_angle_gamma   90.00000005
_symmetry_Int_Tables_number   1
_chemical_formula_structural   U2Mo
_chemical_formula_sum   'U2 Mo1'
_cell_volume   57.12379475
_cell_formula_units_Z   1
loop_
 _symmetry_equiv_pos_site_id
 _symmetry_equiv_pos_as_xyz
  1  'x, y, z'
loop_
 _atom_site_type_symbol
 _atom_site_label
 _atom_site_symmetry_multiplicity
 _atom_site_fract_x
 _atom_site_fract_y
 _atom_site_fract_z
 _atom_site_occupancy
  U  U1  1  0.320719  0.320719  0.641438  1.0
  U  U2  1  0.679281  0.679281  0.358562  1.0
  Mo  Mo3  1  0.000000  0.000000  0.000000  1.0
