# generated using pymatgen
data_KCuO
_symmetry_space_group_name_H-M   'P 1'
_cell_length_a   5.55266542
_cell_length_b   7.18001885
_cell_length_c   7.18001885
_cell_angle_alpha   81.40103747
_cell_angle_beta   67.25224366
_cell_angle_gamma   67.25224362
_symmetry_Int_Tables_number   1
_chemical_formula_structural   KCuO
_chemical_formula_sum   'K4 Cu4 O4'
_cell_volume   243.45465748
_cell_formula_units_Z   4
loop_
 _symmetry_equiv_pos_site_id
 _symmetry_equiv_pos_as_xyz
  1  'x, y, z'
loop_
 _atom_site_type_symbol
 _atom_site_label
 _atom_site_symmetry_multiplicity
 _atom_site_fract_x
 _atom_site_fract_y
 _atom_site_fract_z
 _atom_site_occupancy
  K  K1  1  0.250019  0.190281  0.809719  1.0
  K  K2  1  0.250019  0.809719  0.190281  1.0
  K  K3  1  0.940262  0.809719  0.809719  1.0
  K  K4  1  0.559699  0.190281  0.190281  1.0
  Cu  Cu5  1  0.888986  0.500000  0.222028  1.0
  Cu  Cu6  1  0.611014  0.777972  0.500000  1.0
  Cu  Cu7  1  0.611014  0.500000  0.777972  1.0
  Cu  Cu8  1  0.888986  0.222028  0.500000  1.0
  O  O9  1  0.471457  0.778484  0.778484  1.0
  O  O10  1  0.750060  0.221516  0.778484  1.0
  O  O11  1  0.750060  0.778484  0.221516  1.0
  O  O12  1  0.028424  0.221516  0.221516  1.0
