# generated using pymatgen
data_CaCO3
_symmetry_space_group_name_H-M   'P 1'
_cell_length_a   5.01007555
_cell_length_b   5.04083687
_cell_length_c   8.74457741
_cell_angle_alpha   90.64546782
_cell_angle_beta   90.00000000
_cell_angle_gamma   119.79833791
_symmetry_Int_Tables_number   1
_chemical_formula_structural   CaCO3
_chemical_formula_sum   'Ca3 C3 O9'
_cell_volume   191.62789019
_cell_formula_units_Z   3
loop_
 _symmetry_equiv_pos_site_id
 _symmetry_equiv_pos_as_xyz
  1  'x, y, z'
loop_
 _atom_site_type_symbol
 _atom_site_label
 _atom_site_symmetry_multiplicity
 _atom_site_fract_x
 _atom_site_fract_y
 _atom_site_fract_z
 _atom_site_occupancy
  Ca  Ca1  1  0.676903  0.330104  0.334487  1.0
  Ca  Ca2  1  0.016797  0.000000  0.000000  1.0
  Ca  Ca3  1  0.346799  0.669896  0.665513  1.0
  C  C4  1  0.349379  0.660017  0.169164  1.0
  C  C5  1  0.689362  0.339983  0.830836  1.0
  C  C6  1  0.008698  0.000000  0.500000  1.0
  O  O7  1  0.948682  0.339540  0.834051  1.0
  O  O8  1  0.690151  0.597954  0.826331  1.0
  O  O9  1  0.430798  0.083092  0.832542  1.0
  O  O10  1  0.347706  0.916908  0.167458  1.0
  O  O11  1  0.266741  0.257317  0.499902  1.0
  O  O12  1  0.009424  0.742683  0.500098  1.0
  O  O13  1  0.092197  0.402046  0.173669  1.0
  O  O14  1  0.609142  0.660460  0.165949  1.0
  O  O15  1  0.749220  0.000000  0.500000  1.0
