# generated using pymatgen
data_Rb2NaRhF6
_symmetry_space_group_name_H-M   'P 1'
_cell_length_a   6.12720499
_cell_length_b   6.12720504
_cell_length_c   6.12720503
_cell_angle_alpha   59.99999979
_cell_angle_beta   59.99999972
_cell_angle_gamma   59.99999972
_symmetry_Int_Tables_number   1
_chemical_formula_structural   Rb2NaRhF6
_chemical_formula_sum   'Rb2 Na1 Rh1 F6'
_cell_volume   162.65680472
_cell_formula_units_Z   1
loop_
 _symmetry_equiv_pos_site_id
 _symmetry_equiv_pos_as_xyz
  1  'x, y, z'
loop_
 _atom_site_type_symbol
 _atom_site_label
 _atom_site_symmetry_multiplicity
 _atom_site_fract_x
 _atom_site_fract_y
 _atom_site_fract_z
 _atom_site_occupancy
  Rb  Rb1  1  0.250000  0.250000  0.250000  1.0
  Rb  Rb2  1  0.750000  0.750000  0.750000  1.0
  Na  Na3  1  0.500000  0.500000  0.500000  1.0
  Rh  Rh4  1  0.000000  0.000000  0.000000  1.0
  F  F5  1  0.233379  0.766621  0.233379  1.0
  F  F6  1  0.766621  0.766621  0.233379  1.0
  F  F7  1  0.766621  0.233379  0.766621  1.0
  F  F8  1  0.766621  0.233379  0.233379  1.0
  F  F9  1  0.233379  0.766621  0.766621  1.0
  F  F10  1  0.233379  0.233379  0.766621  1.0
