# generated using pymatgen
data_Ba(MgPb)2
_symmetry_space_group_name_H-M   'P 1'
_cell_length_a   5.03028829
_cell_length_b   5.03028829
_cell_length_c   12.43790296
_cell_angle_alpha   90.00000000
_cell_angle_beta   90.00000000
_cell_angle_gamma   90.00000000
_symmetry_Int_Tables_number   1
_chemical_formula_structural   Ba(MgPb)2
_chemical_formula_sum   'Ba2 Mg4 Pb4'
_cell_volume   314.72621241
_cell_formula_units_Z   2
loop_
 _symmetry_equiv_pos_site_id
 _symmetry_equiv_pos_as_xyz
  1  'x, y, z'
loop_
 _atom_site_type_symbol
 _atom_site_label
 _atom_site_symmetry_multiplicity
 _atom_site_fract_x
 _atom_site_fract_y
 _atom_site_fract_z
 _atom_site_occupancy
  Ba  Ba1  1  0.750000  0.750000  0.747217  1.0
  Ba  Ba2  1  0.250000  0.250000  0.252783  1.0
  Mg  Mg3  1  0.250000  0.250000  0.635744  1.0
  Mg  Mg4  1  0.750000  0.750000  0.364256  1.0
  Mg  Mg5  1  0.250000  0.750000  0.000000  1.0
  Mg  Mg6  1  0.750000  0.250000  0.000000  1.0
  Pb  Pb7  1  0.250000  0.250000  0.865329  1.0
  Pb  Pb8  1  0.750000  0.750000  0.134671  1.0
  Pb  Pb9  1  0.750000  0.250000  0.500000  1.0
  Pb  Pb10  1  0.250000  0.750000  0.500000  1.0
