# generated using pymatgen
data_MgCd
_symmetry_space_group_name_H-M   'P 1'
_cell_length_a   11.43777199
_cell_length_b   3.21550666
_cell_length_c   5.30769261
_cell_angle_alpha   90.00000000
_cell_angle_beta   115.76178542
_cell_angle_gamma   90.00000000
_symmetry_Int_Tables_number   1
_chemical_formula_structural   MgCd
_chemical_formula_sum   'Mg4 Cd4'
_cell_volume   175.80564877
_cell_formula_units_Z   4
loop_
 _symmetry_equiv_pos_site_id
 _symmetry_equiv_pos_as_xyz
  1  'x, y, z'
loop_
 _atom_site_type_symbol
 _atom_site_label
 _atom_site_symmetry_multiplicity
 _atom_site_fract_x
 _atom_site_fract_y
 _atom_site_fract_z
 _atom_site_occupancy
  Mg  Mg1  1  0.624002  0.500000  0.793041  1.0
  Mg  Mg2  1  0.875998  0.000000  0.206959  1.0
  Mg  Mg3  1  0.124002  0.000000  0.793041  1.0
  Mg  Mg4  1  0.375998  0.500000  0.206959  1.0
  Cd  Cd5  1  0.875555  0.500000  0.711432  1.0
  Cd  Cd6  1  0.624445  0.000000  0.288568  1.0
  Cd  Cd7  1  0.375555  0.000000  0.711432  1.0
  Cd  Cd8  1  0.124445  0.500000  0.288568  1.0
