# generated using pymatgen
data_Mg2NF
_symmetry_space_group_name_H-M   'P 1'
_cell_length_a   4.22023022
_cell_length_b   4.22023022
_cell_length_c   5.90032625
_cell_angle_alpha   110.95452421
_cell_angle_beta   110.95452425
_cell_angle_gamma   90.00000002
_symmetry_Int_Tables_number   1
_chemical_formula_structural   Mg2NF
_chemical_formula_sum   'Mg4 N2 F2'
_cell_volume   90.65565828
_cell_formula_units_Z   2
loop_
 _symmetry_equiv_pos_site_id
 _symmetry_equiv_pos_as_xyz
  1  'x, y, z'
loop_
 _atom_site_type_symbol
 _atom_site_label
 _atom_site_symmetry_multiplicity
 _atom_site_fract_x
 _atom_site_fract_y
 _atom_site_fract_z
 _atom_site_occupancy
  Mg  Mg1  1  0.086979  0.336979  0.173959  1.0
  Mg  Mg2  1  0.336979  0.086979  0.673959  1.0
  Mg  Mg3  1  0.913021  0.663021  0.826041  1.0
  Mg  Mg4  1  0.663021  0.913021  0.326041  1.0
  N  N5  1  0.875000  0.125000  0.750000  1.0
  N  N6  1  0.125000  0.875000  0.250000  1.0
  F  F7  1  0.375000  0.625000  0.750000  1.0
  F  F8  1  0.625000  0.375000  0.250000  1.0
