# generated using pymatgen
data_DyZn2
_symmetry_space_group_name_H-M   'P 1'
_cell_length_a   4.50959412
_cell_length_b   5.64096872
_cell_length_c   5.64096872
_cell_angle_alpha   78.70139099
_cell_angle_beta   66.43944590
_cell_angle_gamma   66.43944590
_symmetry_Int_Tables_number   1
_chemical_formula_structural   DyZn2
_chemical_formula_sum   'Dy2 Zn4'
_cell_volume   120.45876399
_cell_formula_units_Z   2
loop_
 _symmetry_equiv_pos_site_id
 _symmetry_equiv_pos_as_xyz
  1  'x, y, z'
loop_
 _atom_site_type_symbol
 _atom_site_label
 _atom_site_symmetry_multiplicity
 _atom_site_fract_x
 _atom_site_fract_y
 _atom_site_fract_z
 _atom_site_occupancy
  Dy  Dy1  1  0.535897  0.714103  0.214103  1.0
  Dy  Dy2  1  0.464103  0.285897  0.785897  1.0
  Zn  Zn3  1  0.166266  0.285120  0.382348  1.0
  Zn  Zn4  1  0.833734  0.714880  0.617652  1.0
  Zn  Zn5  1  0.833734  0.117652  0.214880  1.0
  Zn  Zn6  1  0.166266  0.882348  0.785120  1.0
