# generated using pymatgen
data_BaBiO3
_symmetry_space_group_name_H-M   'P 1'
_cell_length_a   6.24404468
_cell_length_b   6.28000994
_cell_length_c   8.80839304
_cell_angle_alpha   90.26106186
_cell_angle_beta   90.00000000
_cell_angle_gamma   90.00000000
_symmetry_Int_Tables_number   1
_chemical_formula_structural   BaBiO3
_chemical_formula_sum   'Ba4 Bi4 O12'
_cell_volume   345.39695945
_cell_formula_units_Z   4
loop_
 _symmetry_equiv_pos_site_id
 _symmetry_equiv_pos_as_xyz
  1  'x, y, z'
loop_
 _atom_site_type_symbol
 _atom_site_label
 _atom_site_symmetry_multiplicity
 _atom_site_fract_x
 _atom_site_fract_y
 _atom_site_fract_z
 _atom_site_occupancy
  Ba  Ba1  1  0.013351  0.493666  0.750994  1.0
  Ba  Ba2  1  0.986649  0.506334  0.249006  1.0
  Ba  Ba3  1  0.486649  0.993666  0.250994  1.0
  Ba  Ba4  1  0.513351  0.006334  0.749006  1.0
  Bi  Bi5  1  0.500000  0.500000  0.000000  1.0
  Bi  Bi6  1  0.000000  0.000000  0.000000  1.0
  Bi  Bi7  1  0.000000  0.000000  0.500000  1.0
  Bi  Bi8  1  0.500000  0.500000  0.500000  1.0
  O  O9  1  0.272484  0.243491  0.961646  1.0
  O  O10  1  0.991804  0.929991  0.741410  1.0
  O  O11  1  0.260053  0.224090  0.538490  1.0
  O  O12  1  0.739947  0.775910  0.461510  1.0
  O  O13  1  0.239947  0.724090  0.038490  1.0
  O  O14  1  0.760053  0.275910  0.961510  1.0
  O  O15  1  0.227516  0.743491  0.461645  1.0
  O  O16  1  0.772484  0.256509  0.538354  1.0
  O  O17  1  0.008196  0.070009  0.258590  1.0
  O  O18  1  0.491804  0.570009  0.758590  1.0
  O  O19  1  0.508196  0.429991  0.241410  1.0
  O  O20  1  0.727516  0.756509  0.038354  1.0
