# generated using pymatgen
data_TiS3
_symmetry_space_group_name_H-M   'P 1'
_cell_length_a   3.41561713
_cell_length_b   5.02973032
_cell_length_c   9.51781416
_cell_angle_alpha   84.23301157
_cell_angle_beta   90.00000000
_cell_angle_gamma   90.00000000
_symmetry_Int_Tables_number   1
_chemical_formula_structural   TiS3
_chemical_formula_sum   'Ti2 S6'
_cell_volume   162.68497970
_cell_formula_units_Z   2
loop_
 _symmetry_equiv_pos_site_id
 _symmetry_equiv_pos_as_xyz
  1  'x, y, z'
loop_
 _atom_site_type_symbol
 _atom_site_label
 _atom_site_symmetry_multiplicity
 _atom_site_fract_x
 _atom_site_fract_y
 _atom_site_fract_z
 _atom_site_occupancy
  Ti  Ti1  1  0.250000  0.722972  0.641355  1.0
  Ti  Ti2  1  0.750000  0.277028  0.358645  1.0
  S  S3  1  0.250000  0.104252  0.199565  1.0
  S  S4  1  0.750000  0.895748  0.800435  1.0
  S  S5  1  0.750000  0.758849  0.453327  1.0
  S  S6  1  0.250000  0.241151  0.546673  1.0
  S  S7  1  0.750000  0.489814  0.800644  1.0
  S  S8  1  0.250000  0.510186  0.199356  1.0
