# generated using pymatgen
data_Ba9Nb10O30
_symmetry_space_group_name_H-M   'P 1'
_cell_length_a   20.72469024
_cell_length_b   9.25916966
_cell_length_c   9.25816290
_cell_angle_alpha   66.36019052
_cell_angle_beta   63.38253749
_cell_angle_gamma   26.44169519
_symmetry_Int_Tables_number   1
_chemical_formula_structural   Ba9Nb10O30
_chemical_formula_sum   'Ba9 Nb10 O30'
_cell_volume   707.24665573
_cell_formula_units_Z   1
loop_
 _symmetry_equiv_pos_site_id
 _symmetry_equiv_pos_as_xyz
  1  'x, y, z'
loop_
 _atom_site_type_symbol
 _atom_site_label
 _atom_site_symmetry_multiplicity
 _atom_site_fract_x
 _atom_site_fract_y
 _atom_site_fract_z
 _atom_site_occupancy
  Ba  Ba1  1  0.197836  0.000964  0.000250  1.0
  Ba  Ba2  1  0.396458  0.009165  0.000003  1.0
  Ba  Ba3  1  0.603542  0.990835  0.999997  1.0
  Ba  Ba4  1  0.098604  0.001495  0.503601  1.0
  Ba  Ba5  1  0.802164  0.999036  0.999750  1.0
  Ba  Ba6  1  0.299685  0.001695  0.499963  1.0
  Ba  Ba7  1  0.500000  0.000000  0.500000  1.0
  Ba  Ba8  1  0.700315  0.998305  0.500037  1.0
  Ba  Ba9  1  0.901396  0.998505  0.496399  1.0
  Nb  Nb10  1  0.048973  0.507041  0.246588  1.0
  Nb  Nb11  1  0.246893  0.505796  0.247095  1.0
  Nb  Nb12  1  0.147538  0.507640  0.752936  1.0
  Nb  Nb13  1  0.345180  0.505799  0.754528  1.0
  Nb  Nb14  1  0.449683  0.500443  0.250435  1.0
  Nb  Nb15  1  0.654820  0.494201  0.245472  1.0
  Nb  Nb16  1  0.550317  0.499557  0.749565  1.0
  Nb  Nb17  1  0.852462  0.492360  0.247064  1.0
  Nb  Nb18  1  0.753107  0.494204  0.752905  1.0
  Nb  Nb19  1  0.951027  0.492959  0.753412  1.0
  O  O20  1  0.101062  0.493792  0.000120  1.0
  O  O21  1  0.152087  0.999169  0.747138  1.0
  O  O22  1  0.151939  0.493048  0.253093  1.0
  O  O23  1  0.049920  0.499729  0.750500  1.0
  O  O24  1  0.303826  0.493193  0.000158  1.0
  O  O25  1  0.199269  0.501490  0.500158  1.0
  O  O26  1  0.350193  0.999777  0.750240  1.0
  O  O27  1  0.050796  0.999437  0.252813  1.0
  O  O28  1  0.350129  0.500012  0.249670  1.0
  O  O29  1  0.253314  0.492945  0.747065  1.0
  O  O30  1  0.399532  0.500609  0.500064  1.0
  O  O31  1  0.500000  0.500000  0.000000  1.0
  O  O32  1  0.549769  0.000193  0.750926  1.0
  O  O33  1  0.250352  0.999720  0.249776  1.0
  O  O34  1  0.550136  0.499768  0.249559  1.0
  O  O35  1  0.449864  0.500232  0.750441  1.0
  O  O36  1  0.696174  0.506807  0.999842  1.0
  O  O37  1  0.600468  0.499391  0.499936  1.0
  O  O38  1  0.749648  0.000280  0.750224  1.0
  O  O39  1  0.450231  0.999807  0.249074  1.0
  O  O40  1  0.746686  0.507055  0.252935  1.0
  O  O41  1  0.649871  0.499988  0.750330  1.0
  O  O42  1  0.898938  0.506208  0.999880  1.0
  O  O43  1  0.800731  0.498510  0.499842  1.0
  O  O44  1  0.949204  0.000563  0.747187  1.0
  O  O45  1  0.649807  0.000223  0.249760  1.0
  O  O46  1  0.950079  0.500271  0.249500  1.0
  O  O47  1  0.848061  0.506952  0.746907  1.0
  O  O48  1  0.000000  0.500000  0.500000  1.0
  O  O49  1  0.847913  0.000831  0.252862  1.0
