# generated using pymatgen
data_Mg2Pd
_symmetry_space_group_name_H-M   'P 1'
_cell_length_a   8.58524267
_cell_length_b   8.58524263
_cell_length_c   8.58524259
_cell_angle_alpha   59.99999660
_cell_angle_beta   59.99999679
_cell_angle_gamma   59.99999767
_symmetry_Int_Tables_number   1
_chemical_formula_structural   Mg2Pd
_chemical_formula_sum   'Mg16 Pd8'
_cell_volume   447.44812547
_cell_formula_units_Z   8
loop_
 _symmetry_equiv_pos_site_id
 _symmetry_equiv_pos_as_xyz
  1  'x, y, z'
loop_
 _atom_site_type_symbol
 _atom_site_label
 _atom_site_symmetry_multiplicity
 _atom_site_fract_x
 _atom_site_fract_y
 _atom_site_fract_z
 _atom_site_occupancy
  Mg  Mg1  1  0.180680  0.569320  0.569320  1.0
  Mg  Mg2  1  0.569320  0.180680  0.569320  1.0
  Mg  Mg3  1  0.180680  0.180680  0.569320  1.0
  Mg  Mg4  1  0.819320  0.430680  0.430680  1.0
  Mg  Mg5  1  0.569320  0.569320  0.180680  1.0
  Mg  Mg6  1  0.819320  0.819320  0.430680  1.0
  Mg  Mg7  1  0.430680  0.819320  0.819320  1.0
  Mg  Mg8  1  0.819320  0.430680  0.819320  1.0
  Mg  Mg9  1  0.180680  0.569320  0.180680  1.0
  Mg  Mg10  1  0.430680  0.430680  0.819320  1.0
  Mg  Mg11  1  0.000000  0.000000  0.000000  1.0
  Mg  Mg12  1  0.569320  0.180680  0.180680  1.0
  Mg  Mg13  1  0.430680  0.819320  0.430680  1.0
  Mg  Mg14  1  0.000000  0.000000  0.500000  1.0
  Mg  Mg15  1  0.000000  0.500000  0.000000  1.0
  Mg  Mg16  1  0.500000  0.000000  0.000000  1.0
  Pd  Pd17  1  0.848121  0.217293  0.217293  1.0
  Pd  Pd18  1  0.217293  0.217293  0.217293  1.0
  Pd  Pd19  1  0.217293  0.217293  0.848121  1.0
  Pd  Pd20  1  0.151879  0.782707  0.782707  1.0
  Pd  Pd21  1  0.217293  0.848121  0.217293  1.0
  Pd  Pd22  1  0.782707  0.782707  0.151879  1.0
  Pd  Pd23  1  0.782707  0.782707  0.782707  1.0
  Pd  Pd24  1  0.782707  0.151879  0.782707  1.0
