# generated using pymatgen
data_ThSn2
_symmetry_space_group_name_H-M   'P 1'
_cell_length_a   4.46554070
_cell_length_b   4.56555780
_cell_length_c   8.70727686
_cell_angle_alpha   105.19881150
_cell_angle_beta   90.00000000
_cell_angle_gamma   90.00000000
_symmetry_Int_Tables_number   1
_chemical_formula_structural   ThSn2
_chemical_formula_sum   'Th2 Sn4'
_cell_volume   171.31186182
_cell_formula_units_Z   2
loop_
 _symmetry_equiv_pos_site_id
 _symmetry_equiv_pos_as_xyz
  1  'x, y, z'
loop_
 _atom_site_type_symbol
 _atom_site_label
 _atom_site_symmetry_multiplicity
 _atom_site_fract_x
 _atom_site_fract_y
 _atom_site_fract_z
 _atom_site_occupancy
  Th  Th1  1  0.750000  0.102498  0.204997  1.0
  Th  Th2  1  0.250000  0.897502  0.795003  1.0
  Sn  Sn3  1  0.750000  0.438621  0.877243  1.0
  Sn  Sn4  1  0.250000  0.561379  0.122757  1.0
  Sn  Sn5  1  0.750000  0.748921  0.497842  1.0
  Sn  Sn6  1  0.250000  0.251079  0.502158  1.0
