# generated using pymatgen
data_KCaO3
_symmetry_space_group_name_H-M   'P 1'
_cell_length_a   4.56780638
_cell_length_b   4.56536408
_cell_length_c   4.57285033
_cell_angle_alpha   90.00057295
_cell_angle_beta   89.99986899
_cell_angle_gamma   90.00027540
_symmetry_Int_Tables_number   1
_chemical_formula_structural   KCaO3
_chemical_formula_sum   'K1 Ca1 O3'
_cell_volume   95.36084513
_cell_formula_units_Z   1
loop_
 _symmetry_equiv_pos_site_id
 _symmetry_equiv_pos_as_xyz
  1  'x, y, z'
loop_
 _atom_site_type_symbol
 _atom_site_label
 _atom_site_symmetry_multiplicity
 _atom_site_fract_x
 _atom_site_fract_y
 _atom_site_fract_z
 _atom_site_occupancy
  K  K1  1  0.000001  0.999998  0.999998  1.0
  Ca  Ca2  1  0.499999  0.500002  0.499999  1.0
  O  O3  1  0.500000  0.499999  0.000003  1.0
  O  O4  1  0.499999  0.000001  0.500000  1.0
  O  O5  1  0.000000  0.500001  0.500000  1.0
