# generated using pymatgen
data_CaIn2Cu
_symmetry_space_group_name_H-M   'P 1'
_cell_length_a   4.48742021
_cell_length_b   5.85618486
_cell_length_c   7.50635812
_cell_angle_alpha   90.00000000
_cell_angle_beta   90.00000000
_cell_angle_gamma   112.52801515
_symmetry_Int_Tables_number   1
_chemical_formula_structural   CaIn2Cu
_chemical_formula_sum   'Ca2 In4 Cu2'
_cell_volume   182.20828636
_cell_formula_units_Z   2
loop_
 _symmetry_equiv_pos_site_id
 _symmetry_equiv_pos_as_xyz
  1  'x, y, z'
loop_
 _atom_site_type_symbol
 _atom_site_label
 _atom_site_symmetry_multiplicity
 _atom_site_fract_x
 _atom_site_fract_y
 _atom_site_fract_z
 _atom_site_occupancy
  Ca  Ca1  1  0.932002  0.864003  0.250000  1.0
  Ca  Ca2  1  0.067998  0.135997  0.750000  1.0
  In  In3  1  0.357752  0.715503  0.550027  1.0
  In  In4  1  0.642248  0.284497  0.449973  1.0
  In  In5  1  0.357752  0.715503  0.949973  1.0
  In  In6  1  0.642248  0.284497  0.050027  1.0
  Cu  Cu7  1  0.787027  0.574053  0.750000  1.0
  Cu  Cu8  1  0.212973  0.425947  0.250000  1.0
