# generated using pymatgen
data_ZnCu2GeTe4
_symmetry_space_group_name_H-M   'P 1'
_cell_length_a   6.09324695
_cell_length_b   6.09324695
_cell_length_c   7.41406971
_cell_angle_alpha   114.26292866
_cell_angle_beta   114.26292864
_cell_angle_gamma   89.99999995
_symmetry_Int_Tables_number   1
_chemical_formula_structural   ZnCu2GeTe4
_chemical_formula_sum   'Zn1 Cu2 Ge1 Te4'
_cell_volume   224.01427512
_cell_formula_units_Z   1
loop_
 _symmetry_equiv_pos_site_id
 _symmetry_equiv_pos_as_xyz
  1  'x, y, z'
loop_
 _atom_site_type_symbol
 _atom_site_label
 _atom_site_symmetry_multiplicity
 _atom_site_fract_x
 _atom_site_fract_y
 _atom_site_fract_z
 _atom_site_occupancy
  Zn  Zn1  1  0.000000  0.000000  0.000000  1.0
  Cu  Cu2  1  0.250000  0.750000  0.500000  1.0
  Cu  Cu3  1  0.750000  0.250000  0.500000  1.0
  Ge  Ge4  1  0.500000  0.500000  0.000000  1.0
  Te  Te5  1  0.384485  0.384485  0.266460  1.0
  Te  Te6  1  0.118025  0.615515  0.733540  1.0
  Te  Te7  1  0.615515  0.118025  0.733540  1.0
  Te  Te8  1  0.881975  0.881975  0.266460  1.0
