# generated using pymatgen
data_B4C
_symmetry_space_group_name_H-M   'P 1'
_cell_length_a   5.11881543
_cell_length_b   5.11891082
_cell_length_c   25.45908682
_cell_angle_alpha   65.66527184
_cell_angle_beta   65.66567369
_cell_angle_gamma   65.56535696
_symmetry_Int_Tables_number   1
_chemical_formula_structural   B4C
_chemical_formula_sum   'B56 C14'
_cell_volume   529.39668084
_cell_formula_units_Z   14
loop_
 _symmetry_equiv_pos_site_id
 _symmetry_equiv_pos_as_xyz
  1  'x, y, z'
loop_
 _atom_site_type_symbol
 _atom_site_label
 _atom_site_symmetry_multiplicity
 _atom_site_fract_x
 _atom_site_fract_y
 _atom_site_fract_z
 _atom_site_occupancy
  B  B1  1  0.994815  0.328809  0.998412  1.0
  B  B2  1  0.995417  0.997846  0.065688  1.0
  B  B3  1  0.327561  0.995615  0.998564  1.0
  B  B4  1  0.004283  0.335445  0.199933  1.0
  B  B5  1  0.005097  0.006368  0.265974  1.0
  B  B6  1  0.202453  0.199899  0.135356  1.0
  B  B7  1  0.193603  0.674543  0.037855  1.0
  B  B8  1  0.348790  0.005026  0.199827  1.0
  B  B9  1  0.673865  0.194935  0.037869  1.0
  B  B10  1  0.001265  0.000626  0.467990  1.0
  B  B11  1  0.203041  0.684513  0.240189  1.0
  B  B12  1  0.197143  0.200105  0.336819  1.0
  B  B13  1  0.322087  0.800870  0.159887  1.0
  B  B14  1  0.329406  0.000315  0.401137  1.0
  B  B15  1  0.679950  0.201197  0.240376  1.0
  B  B16  1  0.795206  0.794652  0.062502  1.0
  B  B17  1  0.799705  0.317557  0.159792  1.0
  B  B18  1  0.008132  0.338764  0.602704  1.0
  B  B19  1  0.203953  0.203396  0.537901  1.0
  B  B20  1  0.198587  0.677709  0.440360  1.0
  B  B21  1  0.314951  0.796304  0.360075  1.0
  B  B22  1  0.337821  0.008497  0.602883  1.0
  B  B23  1  0.682212  0.199614  0.440434  1.0
  B  B24  1  0.798252  0.319293  0.359900  1.0
  B  B25  1  0.799458  0.802379  0.263401  1.0
  B  B26  1  0.998846  0.998158  0.132207  1.0
  B  B27  1  0.999264  0.670191  0.199051  1.0
  B  B28  1  0.001356  0.331429  0.801037  1.0
  B  B29  1  0.206016  0.687607  0.642695  1.0
  B  B30  1  0.200234  0.200642  0.736752  1.0
  B  B31  1  0.323850  0.805971  0.562461  1.0
  B  B32  1  0.664155  0.995241  0.400229  1.0
  B  B33  1  0.331037  0.001766  0.801041  1.0
  B  B34  1  0.687040  0.206712  0.642717  1.0
  B  B35  1  0.804787  0.324438  0.562461  1.0
  B  B36  1  0.799415  0.796674  0.464797  1.0
  B  B37  1  0.993264  0.994480  0.334186  1.0
  B  B38  1  0.994602  0.650738  0.400329  1.0
  B  B39  1  0.200062  0.681529  0.839833  1.0
  B  B40  1  0.194856  0.195535  0.934071  1.0
  B  B41  1  0.317825  0.801822  0.759654  1.0
  B  B42  1  0.671800  0.004115  0.602065  1.0
  B  B43  1  0.681136  0.200461  0.839832  1.0
  B  B44  1  0.801441  0.318200  0.759653  1.0
  B  B45  1  0.805869  0.806463  0.665920  1.0
  B  B46  1  0.000427  0.002842  0.534736  1.0
  B  B47  1  0.003396  0.672930  0.601916  1.0
  B  B48  1  0.313778  0.795654  0.957443  1.0
  B  B49  1  0.667094  0.997472  0.799264  1.0
  B  B50  1  0.801379  0.801807  0.863407  1.0
  B  B51  1  0.794862  0.314506  0.957423  1.0
  B  B52  1  0.999443  0.999868  0.731367  1.0
  B  B53  1  0.997064  0.667495  0.799264  1.0
  B  B54  1  0.660445  0.992969  0.997451  1.0
  B  B55  1  0.992603  0.661469  0.997267  1.0
  B  B56  1  0.994224  0.994771  0.929222  1.0
  C  C57  1  0.367572  0.368567  0.072154  1.0
  C  C58  1  0.997935  0.321404  0.400887  1.0
  C  C59  1  0.374626  0.379534  0.276137  1.0
  C  C60  1  0.626113  0.625497  0.124694  1.0
  C  C61  1  0.006088  0.006525  0.666189  1.0
  C  C62  1  0.678209  0.001757  0.199272  1.0
  C  C63  1  0.375213  0.374514  0.475645  1.0
  C  C64  1  0.619908  0.624860  0.324078  1.0
  C  C65  1  0.999393  0.999897  0.864218  1.0
  C  C66  1  0.382609  0.383192  0.678209  1.0
  C  C67  1  0.630516  0.631476  0.527999  1.0
  C  C68  1  0.372878  0.373266  0.874829  1.0
  C  C69  1  0.626766  0.627131  0.725969  1.0
  C  C70  1  0.623555  0.624152  0.924142  1.0
