# generated using pymatgen
data_Ca5Mg
_symmetry_space_group_name_H-M   'P 1'
_cell_length_a   3.81680192
_cell_length_b   3.81680217
_cell_length_c   18.73763552
_cell_angle_alpha   90.00000000
_cell_angle_beta   90.00000000
_cell_angle_gamma   119.99999785
_symmetry_Int_Tables_number   1
_chemical_formula_structural   Ca5Mg
_chemical_formula_sum   'Ca5 Mg1'
_cell_volume   236.39849127
_cell_formula_units_Z   1
loop_
 _symmetry_equiv_pos_site_id
 _symmetry_equiv_pos_as_xyz
  1  'x, y, z'
loop_
 _atom_site_type_symbol
 _atom_site_label
 _atom_site_symmetry_multiplicity
 _atom_site_fract_x
 _atom_site_fract_y
 _atom_site_fract_z
 _atom_site_occupancy
  Ca  Ca1  1  0.666667  0.333333  0.852844  1.0
  Ca  Ca2  1  0.000000  0.000000  0.675355  1.0
  Ca  Ca3  1  0.666667  0.333333  0.500000  1.0
  Ca  Ca4  1  0.000000  0.000000  0.324645  1.0
  Ca  Ca5  1  0.666667  0.333333  0.147156  1.0
  Mg  Mg6  1  0.000000  0.000000  0.000000  1.0
