# generated using pymatgen
data_Se
_symmetry_space_group_name_H-M   'P 1'
_cell_length_a   6.75373500
_cell_length_b   6.75373586
_cell_length_c   6.75373556
_cell_angle_alpha   113.38082198
_cell_angle_beta   113.38082705
_cell_angle_gamma   113.38081779
_symmetry_Int_Tables_number   1
_chemical_formula_structural   Se
_chemical_formula_sum   Se6
_cell_volume   195.45565592
_cell_formula_units_Z   6
loop_
 _symmetry_equiv_pos_site_id
 _symmetry_equiv_pos_as_xyz
  1  'x, y, z'
loop_
 _atom_site_type_symbol
 _atom_site_label
 _atom_site_symmetry_multiplicity
 _atom_site_fract_x
 _atom_site_fract_y
 _atom_site_fract_z
 _atom_site_occupancy
  Se  Se1  1  0.895148  0.269140  0.137556  1.0
  Se  Se2  1  0.269140  0.137556  0.895148  1.0
  Se  Se3  1  0.862444  0.104852  0.730860  1.0
  Se  Se4  1  0.104852  0.730860  0.862444  1.0
  Se  Se5  1  0.137556  0.895148  0.269140  1.0
  Se  Se6  1  0.730860  0.862444  0.104852  1.0
