# generated using pymatgen
data_Sc2CoSi2
_symmetry_space_group_name_H-M   'P 1'
_cell_length_a   3.95399178
_cell_length_b   5.31650756
_cell_length_c   8.51111411
_cell_angle_alpha   82.54899789
_cell_angle_beta   76.56842305
_cell_angle_gamma   68.16962821
_symmetry_Int_Tables_number   1
_chemical_formula_structural   Sc2CoSi2
_chemical_formula_sum   'Sc4 Co2 Si4'
_cell_volume   161.35686055
_cell_formula_units_Z   2
loop_
 _symmetry_equiv_pos_site_id
 _symmetry_equiv_pos_as_xyz
  1  'x, y, z'
loop_
 _atom_site_type_symbol
 _atom_site_label
 _atom_site_symmetry_multiplicity
 _atom_site_fract_x
 _atom_site_fract_y
 _atom_site_fract_z
 _atom_site_occupancy
  Sc  Sc1  1  0.684041  0.737331  0.894587  1.0
  Sc  Sc2  1  0.499705  0.672347  0.328242  1.0
  Sc  Sc3  1  0.315959  0.262669  0.105413  1.0
  Sc  Sc4  1  0.500295  0.327653  0.671758  1.0
  Co  Co5  1  0.225495  0.923407  0.625603  1.0
  Co  Co6  1  0.774505  0.076593  0.374397  1.0
  Si  Si7  1  0.012274  0.850479  0.124973  1.0
  Si  Si8  1  0.855035  0.720694  0.569238  1.0
  Si  Si9  1  0.987726  0.149521  0.875027  1.0
  Si  Si10  1  0.144965  0.279306  0.430762  1.0
