# generated using pymatgen
data_BaGe
_symmetry_space_group_name_H-M   'P 1'
_cell_length_a   4.36416274
_cell_length_b   5.09767917
_cell_length_c   6.60036804
_cell_angle_alpha   112.71616365
_cell_angle_beta   90.00000000
_cell_angle_gamma   90.00000000
_symmetry_Int_Tables_number   1
_chemical_formula_structural   BaGe
_chemical_formula_sum   'Ba2 Ge2'
_cell_volume   135.44863234
_cell_formula_units_Z   2
loop_
 _symmetry_equiv_pos_site_id
 _symmetry_equiv_pos_as_xyz
  1  'x, y, z'
loop_
 _atom_site_type_symbol
 _atom_site_label
 _atom_site_symmetry_multiplicity
 _atom_site_fract_x
 _atom_site_fract_y
 _atom_site_fract_z
 _atom_site_occupancy
  Ba  Ba1  1  0.250000  0.863189  0.726377  1.0
  Ba  Ba2  1  0.750000  0.136811  0.273623  1.0
  Ge  Ge3  1  0.250000  0.564153  0.128306  1.0
  Ge  Ge4  1  0.750000  0.435847  0.871694  1.0
