# generated using pymatgen
data_AlHO2
_symmetry_space_group_name_H-M   'P 1'
_cell_length_a   6.47608468
_cell_length_b   6.33364087
_cell_length_c   3.76146779
_cell_angle_alpha   90.00000000
_cell_angle_beta   90.00000000
_cell_angle_gamma   26.24417662
_symmetry_Int_Tables_number   1
_chemical_formula_structural   AlHO2
_chemical_formula_sum   'Al2 H2 O4'
_cell_volume   68.22438276
_cell_formula_units_Z   2
loop_
 _symmetry_equiv_pos_site_id
 _symmetry_equiv_pos_as_xyz
  1  'x, y, z'
loop_
 _atom_site_type_symbol
 _atom_site_label
 _atom_site_symmetry_multiplicity
 _atom_site_fract_x
 _atom_site_fract_y
 _atom_site_fract_z
 _atom_site_occupancy
  Al  Al1  1  0.697478  0.669554  0.250000  1.0
  Al  Al2  1  0.302522  0.330446  0.750000  1.0
  H  H3  1  0.053897  0.961728  0.250000  1.0
  H  H4  1  0.946103  0.038272  0.750000  1.0
  O  O5  1  0.278570  0.295588  0.250000  1.0
  O  O6  1  0.721430  0.704412  0.750000  1.0
  O  O7  1  0.121068  0.051294  0.250000  1.0
  O  O8  1  0.878932  0.948706  0.750000  1.0
