# generated using pymatgen
data_NdZn2
_symmetry_space_group_name_H-M   'P 1'
_cell_length_a   4.60794882
_cell_length_b   5.78929332
_cell_length_c   5.78929332
_cell_angle_alpha   80.22401700
_cell_angle_beta   66.54856454
_cell_angle_gamma   66.54856459
_symmetry_Int_Tables_number   1
_chemical_formula_structural   NdZn2
_chemical_formula_sum   'Nd2 Zn4'
_cell_volume   129.96730890
_cell_formula_units_Z   2
loop_
 _symmetry_equiv_pos_site_id
 _symmetry_equiv_pos_as_xyz
  1  'x, y, z'
loop_
 _atom_site_type_symbol
 _atom_site_label
 _atom_site_symmetry_multiplicity
 _atom_site_fract_x
 _atom_site_fract_y
 _atom_site_fract_z
 _atom_site_occupancy
  Nd  Nd1  1  0.538924  0.711076  0.211076  1.0
  Nd  Nd2  1  0.461076  0.288924  0.788924  1.0
  Zn  Zn3  1  0.834612  0.720379  0.610397  1.0
  Zn  Zn4  1  0.165388  0.279621  0.389603  1.0
  Zn  Zn5  1  0.834612  0.110397  0.220379  1.0
  Zn  Zn6  1  0.165388  0.889603  0.779621  1.0
