# generated using pymatgen
data_FeOF
_symmetry_space_group_name_H-M   'P 1'
_cell_length_a   5.95995921
_cell_length_b   5.19461020
_cell_length_c   5.19381337
_cell_angle_alpha   96.21945908
_cell_angle_beta   67.23240922
_cell_angle_gamma   67.03605035
_symmetry_Int_Tables_number   1
_chemical_formula_structural   FeOF
_chemical_formula_sum   'Fe4 O4 F4'
_cell_volume   129.99513675
_cell_formula_units_Z   4
loop_
 _symmetry_equiv_pos_site_id
 _symmetry_equiv_pos_as_xyz
  1  'x, y, z'
loop_
 _atom_site_type_symbol
 _atom_site_label
 _atom_site_symmetry_multiplicity
 _atom_site_fract_x
 _atom_site_fract_y
 _atom_site_fract_z
 _atom_site_occupancy
  Fe  Fe1  1  0.249548  0.922005  0.077400  1.0
  Fe  Fe2  1  0.753112  0.668892  0.323535  1.0
  Fe  Fe3  1  0.253747  0.324449  0.670590  1.0
  Fe  Fe4  1  0.750131  0.074376  0.921168  1.0
  O  O5  1  0.522932  0.984427  0.736856  1.0
  O  O6  1  0.981029  0.257688  0.006678  1.0
  O  O7  1  0.022767  0.736800  0.987201  1.0
  O  O8  1  0.480248  0.007126  0.258145  1.0
  F  F9  1  0.496567  0.497687  0.003181  1.0
  F  F10  1  0.006774  0.498348  0.493729  1.0
  F  F11  1  0.504438  0.495570  0.496845  1.0
  F  F12  1  0.996316  0.003401  0.499968  1.0
