# generated using pymatgen
data_AlVNi
_symmetry_space_group_name_H-M   'P 1'
_cell_length_a   4.03045481
_cell_length_b   4.03045367
_cell_length_c   4.03045296
_cell_angle_alpha   59.99992384
_cell_angle_beta   59.99991012
_cell_angle_gamma   59.99987460
_symmetry_Int_Tables_number   1
_chemical_formula_structural   AlVNi
_chemical_formula_sum   'Al1 V1 Ni1'
_cell_volume   46.29625824
_cell_formula_units_Z   1
loop_
 _symmetry_equiv_pos_site_id
 _symmetry_equiv_pos_as_xyz
  1  'x, y, z'
loop_
 _atom_site_type_symbol
 _atom_site_label
 _atom_site_symmetry_multiplicity
 _atom_site_fract_x
 _atom_site_fract_y
 _atom_site_fract_z
 _atom_site_occupancy
  Al  Al1  1  0.000000  0.000001  0.999999  1.0
  V  V2  1  0.249998  0.250003  0.249997  1.0
  Ni  Ni3  1  0.500003  0.499996  0.500004  1.0
