# generated using pymatgen
data_CaYMg6
_symmetry_space_group_name_H-M   'P 1'
_cell_length_a   6.74032063
_cell_length_b   9.46594464
_cell_length_c   4.63006641
_cell_angle_alpha   90.00000000
_cell_angle_beta   90.00000000
_cell_angle_gamma   134.60282166
_symmetry_Int_Tables_number   1
_chemical_formula_structural   CaYMg6
_chemical_formula_sum   'Ca1 Y1 Mg6'
_cell_volume   210.33256817
_cell_formula_units_Z   1
loop_
 _symmetry_equiv_pos_site_id
 _symmetry_equiv_pos_as_xyz
  1  'x, y, z'
loop_
 _atom_site_type_symbol
 _atom_site_label
 _atom_site_symmetry_multiplicity
 _atom_site_fract_x
 _atom_site_fract_y
 _atom_site_fract_z
 _atom_site_occupancy
  Ca  Ca1  1  0.249733  0.374866  0.250000  1.0
  Y  Y2  1  0.250043  0.875021  0.250000  1.0
  Mg  Mg3  1  0.750296  0.374971  0.250000  1.0
  Mg  Mg4  1  0.750296  0.875324  0.250000  1.0
  Mg  Mg5  1  0.249671  0.119055  0.750000  1.0
  Mg  Mg6  1  0.249671  0.630618  0.750000  1.0
  Mg  Mg7  1  0.738862  0.119431  0.750000  1.0
  Mg  Mg8  1  0.761427  0.630715  0.750000  1.0
