# generated using pymatgen
data_Ge
_symmetry_space_group_name_H-M   'P 1'
_cell_length_a   4.07495924
_cell_length_b   4.07495924
_cell_length_c   4.07495924
_cell_angle_alpha   59.99999996
_cell_angle_beta   59.99999999
_cell_angle_gamma   59.99999992
_symmetry_Int_Tables_number   1
_chemical_formula_structural   Ge
_chemical_formula_sum   Ge2
_cell_volume   47.84701059
_cell_formula_units_Z   2
loop_
 _symmetry_equiv_pos_site_id
 _symmetry_equiv_pos_as_xyz
  1  'x, y, z'
loop_
 _atom_site_type_symbol
 _atom_site_label
 _atom_site_symmetry_multiplicity
 _atom_site_fract_x
 _atom_site_fract_y
 _atom_site_fract_z
 _atom_site_occupancy
  Ge  Ge1  1  0.875000  0.875000  0.875000  1.0
  Ge  Ge2  1  0.125000  0.125000  0.125000  1.0
