# generated using pymatgen
data_K
_symmetry_space_group_name_H-M   'P 1'
_cell_length_a   4.77542946
_cell_length_b   4.67322047
_cell_length_c   7.65036172
_cell_angle_alpha   90.00000000
_cell_angle_beta   90.00000000
_cell_angle_gamma   59.27384458
_symmetry_Int_Tables_number   1
_chemical_formula_structural   K
_chemical_formula_sum   K2
_cell_volume   146.76305422
_cell_formula_units_Z   2
loop_
 _symmetry_equiv_pos_site_id
 _symmetry_equiv_pos_as_xyz
  1  'x, y, z'
loop_
 _atom_site_type_symbol
 _atom_site_label
 _atom_site_symmetry_multiplicity
 _atom_site_fract_x
 _atom_site_fract_y
 _atom_site_fract_z
 _atom_site_occupancy
  K  K1  1  0.820387  0.359225  0.250000  1.0
  K  K2  1  0.179614  0.640774  0.750000  1.0
