# generated using pymatgen
data_KMnO2
_symmetry_space_group_name_H-M   'P 1'
_cell_length_a   2.91137590
_cell_length_b   6.54911312
_cell_length_c   6.68705185
_cell_angle_alpha   90.00939674
_cell_angle_beta   90.00029066
_cell_angle_gamma   90.00008087
_symmetry_Int_Tables_number   1
_chemical_formula_structural   KMnO2
_chemical_formula_sum   'K2 Mn2 O4'
_cell_volume   127.50154851
_cell_formula_units_Z   2
loop_
 _symmetry_equiv_pos_site_id
 _symmetry_equiv_pos_as_xyz
  1  'x, y, z'
loop_
 _atom_site_type_symbol
 _atom_site_label
 _atom_site_symmetry_multiplicity
 _atom_site_fract_x
 _atom_site_fract_y
 _atom_site_fract_z
 _atom_site_occupancy
  K  K1  1  0.499995  0.000116  0.499984  1.0
  K  K2  1  0.000006  0.499878  0.999976  1.0
  Mn  Mn3  1  0.499994  0.500140  0.499987  1.0
  Mn  Mn4  1  0.000008  0.999870  0.000002  1.0
  O  O5  1  0.999998  0.341936  0.387734  1.0
  O  O6  1  0.499999  0.158031  0.887739  1.0
  O  O7  1  0.000001  0.658289  0.612315  1.0
  O  O8  1  0.500001  0.841739  0.112311  1.0
