# generated using pymatgen
data_Rb2CrCl4
_symmetry_space_group_name_H-M   'P 1'
_cell_length_a   5.07984704
_cell_length_b   5.07984665
_cell_length_c   8.85004502
_cell_angle_alpha   106.16893712
_cell_angle_beta   106.16893137
_cell_angle_gamma   89.98294071
_symmetry_Int_Tables_number   1
_chemical_formula_structural   Rb2CrCl4
_chemical_formula_sum   'Rb2 Cr1 Cl4'
_cell_volume   209.92462998
_cell_formula_units_Z   1
loop_
 _symmetry_equiv_pos_site_id
 _symmetry_equiv_pos_as_xyz
  1  'x, y, z'
loop_
 _atom_site_type_symbol
 _atom_site_label
 _atom_site_symmetry_multiplicity
 _atom_site_fract_x
 _atom_site_fract_y
 _atom_site_fract_z
 _atom_site_occupancy
  Rb  Rb1  1  0.634643  0.634643  0.278918  1.0
  Rb  Rb2  1  0.365357  0.365357  0.721082  1.0
  Cr  Cr3  1  0.000000  0.000000  0.000000  1.0
  Cl  Cl4  1  0.500000  0.000000  0.000000  1.0
  Cl  Cl5  1  0.855203  0.855203  0.699097  1.0
  Cl  Cl6  1  0.000000  0.500000  0.000000  1.0
  Cl  Cl7  1  0.144797  0.144797  0.300903  1.0
