# generated using pymatgen
data_NbP
_symmetry_space_group_name_H-M   'P 1'
_cell_length_a   3.51744478
_cell_length_b   3.51744478
_cell_length_c   5.79909819
_cell_angle_alpha   107.65442300
_cell_angle_beta   107.65442295
_cell_angle_gamma   90.00000007
_symmetry_Int_Tables_number   1
_chemical_formula_structural   NbP
_chemical_formula_sum   'Nb2 P2'
_cell_volume   64.81462131
_cell_formula_units_Z   2
loop_
 _symmetry_equiv_pos_site_id
 _symmetry_equiv_pos_as_xyz
  1  'x, y, z'
loop_
 _atom_site_type_symbol
 _atom_site_label
 _atom_site_symmetry_multiplicity
 _atom_site_fract_x
 _atom_site_fract_y
 _atom_site_fract_z
 _atom_site_occupancy
  Nb  Nb1  1  0.875000  0.625000  0.250000  1.0
  Nb  Nb2  1  0.125000  0.375000  0.750000  1.0
  P  P3  1  0.375000  0.125000  0.250000  1.0
  P  P4  1  0.625000  0.875000  0.750000  1.0
