# generated using pymatgen
data_BaSr3
_symmetry_space_group_name_H-M   'P 1'
_cell_length_a   8.65266956
_cell_length_b   8.65266931
_cell_length_c   7.10845373
_cell_angle_alpha   90.00000000
_cell_angle_beta   90.00000000
_cell_angle_gamma   119.99999707
_symmetry_Int_Tables_number   1
_chemical_formula_structural   BaSr3
_chemical_formula_sum   'Ba2 Sr6'
_cell_volume   460.89925915
_cell_formula_units_Z   2
loop_
 _symmetry_equiv_pos_site_id
 _symmetry_equiv_pos_as_xyz
  1  'x, y, z'
loop_
 _atom_site_type_symbol
 _atom_site_label
 _atom_site_symmetry_multiplicity
 _atom_site_fract_x
 _atom_site_fract_y
 _atom_site_fract_z
 _atom_site_occupancy
  Ba  Ba1  1  0.333334  0.666667  0.750000  1.0
  Ba  Ba2  1  0.666667  0.333333  0.250000  1.0
  Sr  Sr3  1  0.166312  0.332623  0.250000  1.0
  Sr  Sr4  1  0.667377  0.833689  0.250000  1.0
  Sr  Sr5  1  0.166312  0.833689  0.250000  1.0
  Sr  Sr6  1  0.833689  0.667378  0.750000  1.0
  Sr  Sr7  1  0.332622  0.166311  0.750000  1.0
  Sr  Sr8  1  0.833689  0.166311  0.750000  1.0
