# generated using pymatgen
data_RbSn3
_symmetry_space_group_name_H-M   'P 1'
_cell_length_a   7.95689716
_cell_length_b   7.95689818
_cell_length_c   5.50370256
_cell_angle_alpha   90.00000000
_cell_angle_beta   90.00000000
_cell_angle_gamma   120.00000047
_symmetry_Int_Tables_number   1
_chemical_formula_structural   RbSn3
_chemical_formula_sum   'Rb2 Sn6'
_cell_volume   301.76796233
_cell_formula_units_Z   2
loop_
 _symmetry_equiv_pos_site_id
 _symmetry_equiv_pos_as_xyz
  1  'x, y, z'
loop_
 _atom_site_type_symbol
 _atom_site_label
 _atom_site_symmetry_multiplicity
 _atom_site_fract_x
 _atom_site_fract_y
 _atom_site_fract_z
 _atom_site_occupancy
  Rb  Rb1  1  0.333333  0.666666  0.750000  1.0
  Rb  Rb2  1  0.666668  0.333333  0.250001  1.0
  Sn  Sn3  1  0.128799  0.257598  0.250001  1.0
  Sn  Sn4  1  0.742401  0.871200  0.250001  1.0
  Sn  Sn5  1  0.128800  0.871200  0.250001  1.0
  Sn  Sn6  1  0.871200  0.742401  0.750000  1.0
  Sn  Sn7  1  0.257599  0.128800  0.750000  1.0
  Sn  Sn8  1  0.871201  0.128800  0.750000  1.0
