# generated using pymatgen
data_Rb3Mo
_symmetry_space_group_name_H-M   'P 1'
_cell_length_a   7.30507717
_cell_length_b   7.30507717
_cell_length_c   7.30507717
_cell_angle_alpha   127.78572483
_cell_angle_beta   127.78572483
_cell_angle_gamma   76.97240328
_symmetry_Int_Tables_number   1
_chemical_formula_structural   Rb3Mo
_chemical_formula_sum   'Rb3 Mo1'
_cell_volume   236.35677661
_cell_formula_units_Z   1
loop_
 _symmetry_equiv_pos_site_id
 _symmetry_equiv_pos_as_xyz
  1  'x, y, z'
loop_
 _atom_site_type_symbol
 _atom_site_label
 _atom_site_symmetry_multiplicity
 _atom_site_fract_x
 _atom_site_fract_y
 _atom_site_fract_z
 _atom_site_occupancy
  Rb  Rb1  1  0.750001  0.250000  0.500001  1.0
  Rb  Rb2  1  0.250000  0.750001  0.500001  1.0
  Rb  Rb3  1  0.500000  0.500000  0.000000  1.0
  Mo  Mo4  1  0.000000  0.000000  0.000000  1.0
