# generated using pymatgen
data_Sb
_symmetry_space_group_name_H-M   'P 1'
_cell_length_a   4.38595435
_cell_length_b   4.38595399
_cell_length_c   4.61454302
_cell_angle_alpha   61.62556128
_cell_angle_beta   61.62555638
_cell_angle_gamma   59.99999910
_symmetry_Int_Tables_number   1
_chemical_formula_structural   Sb
_chemical_formula_sum   Sb2
_cell_volume   64.26679564
_cell_formula_units_Z   2
loop_
 _symmetry_equiv_pos_site_id
 _symmetry_equiv_pos_as_xyz
  1  'x, y, z'
loop_
 _atom_site_type_symbol
 _atom_site_label
 _atom_site_symmetry_multiplicity
 _atom_site_fract_x
 _atom_site_fract_y
 _atom_site_fract_z
 _atom_site_occupancy
  Sb  Sb1  1  0.731830  0.731830  0.804511  1.0
  Sb  Sb2  1  0.268170  0.268170  0.195489  1.0
