# generated using pymatgen
data_TiI3
_symmetry_space_group_name_H-M   'P 1'
_cell_length_a   7.74450830
_cell_length_b   7.74450830
_cell_length_c   6.41959144
_cell_angle_alpha   90.00000000
_cell_angle_beta   90.00000000
_cell_angle_gamma   119.99999999
_symmetry_Int_Tables_number   1
_chemical_formula_structural   TiI3
_chemical_formula_sum   'Ti2 I6'
_cell_volume   333.44615978
_cell_formula_units_Z   2
loop_
 _symmetry_equiv_pos_site_id
 _symmetry_equiv_pos_as_xyz
  1  'x, y, z'
loop_
 _atom_site_type_symbol
 _atom_site_label
 _atom_site_symmetry_multiplicity
 _atom_site_fract_x
 _atom_site_fract_y
 _atom_site_fract_z
 _atom_site_occupancy
  Ti  Ti1  1  0.000000  0.000000  0.000000  1.0
  Ti  Ti2  1  0.000000  0.000000  0.500000  1.0
  I  I3  1  0.295883  0.000000  0.250000  1.0
  I  I4  1  0.295883  0.295883  0.750000  1.0
  I  I5  1  0.000000  0.704117  0.750000  1.0
  I  I6  1  0.000000  0.295883  0.250000  1.0
  I  I7  1  0.704117  0.704117  0.250000  1.0
  I  I8  1  0.704117  0.000000  0.750000  1.0
