# generated using pymatgen
data_Rb3Au7
_symmetry_space_group_name_H-M   'P 1'
_cell_length_a   5.68661393
_cell_length_b   7.45464229
_cell_length_c   7.34755361
_cell_angle_alpha   90.00000000
_cell_angle_beta   90.00000000
_cell_angle_gamma   112.42131344
_symmetry_Int_Tables_number   1
_chemical_formula_structural   Rb3Au7
_chemical_formula_sum   'Rb3 Au7'
_cell_volume   287.92888406
_cell_formula_units_Z   1
loop_
 _symmetry_equiv_pos_site_id
 _symmetry_equiv_pos_as_xyz
  1  'x, y, z'
loop_
 _atom_site_type_symbol
 _atom_site_label
 _atom_site_symmetry_multiplicity
 _atom_site_fract_x
 _atom_site_fract_y
 _atom_site_fract_z
 _atom_site_occupancy
  Rb  Rb1  1  0.500000  0.000000  0.000000  1.0
  Rb  Rb2  1  0.339538  0.679076  0.500000  1.0
  Rb  Rb3  1  0.660462  0.320924  0.500000  1.0
  Au  Au4  1  0.000000  0.000000  0.500000  1.0
  Au  Au5  1  0.000000  0.500000  0.000000  1.0
  Au  Au6  1  0.500000  0.500000  0.000000  1.0
  Au  Au7  1  0.892795  0.785591  0.195085  1.0
  Au  Au8  1  0.107205  0.214409  0.195085  1.0
  Au  Au9  1  0.107205  0.214409  0.804915  1.0
  Au  Au10  1  0.892795  0.785591  0.804915  1.0
