# generated using pymatgen
data_SrWN3
_symmetry_space_group_name_H-M   'P 1'
_cell_length_a   3.83003017
_cell_length_b   6.55368000
_cell_length_c   6.71311590
_cell_angle_alpha   103.29029562
_cell_angle_beta   89.99998786
_cell_angle_gamma   106.98998162
_symmetry_Int_Tables_number   1
_chemical_formula_structural   SrWN3
_chemical_formula_sum   'Sr2 W2 N6'
_cell_volume   156.42534854
_cell_formula_units_Z   2
loop_
 _symmetry_equiv_pos_site_id
 _symmetry_equiv_pos_as_xyz
  1  'x, y, z'
loop_
 _atom_site_type_symbol
 _atom_site_label
 _atom_site_symmetry_multiplicity
 _atom_site_fract_x
 _atom_site_fract_y
 _atom_site_fract_z
 _atom_site_occupancy
  Sr  Sr1  1  0.382240  0.764480  0.665850  1.0
  Sr  Sr2  1  0.617760  0.235520  0.334150  1.0
  W  W3  1  0.153090  0.306180  0.868410  1.0
  W  W4  1  0.846910  0.693820  0.131590  1.0
  N  N5  1  0.154380  0.308760  0.601390  1.0
  N  N6  1  0.998810  0.997620  0.104180  1.0
  N  N7  1  0.001190  0.002380  0.895820  1.0
  N  N8  1  0.319350  0.638700  0.022210  1.0
  N  N9  1  0.680650  0.361300  0.977790  1.0
  N  N10  1  0.845620  0.691240  0.398610  1.0
