# generated using pymatgen
data_KZrCuSe3
_symmetry_space_group_name_H-M   'P 1'
_cell_length_a   3.90731598
_cell_length_b   7.72837779
_cell_length_c   10.24176777
_cell_angle_alpha   90.00000000
_cell_angle_beta   90.00000000
_cell_angle_gamma   104.64268213
_symmetry_Int_Tables_number   1
_chemical_formula_structural   KZrCuSe3
_chemical_formula_sum   'K2 Zr2 Cu2 Se6'
_cell_volume   299.22801898
_cell_formula_units_Z   2
loop_
 _symmetry_equiv_pos_site_id
 _symmetry_equiv_pos_as_xyz
  1  'x, y, z'
loop_
 _atom_site_type_symbol
 _atom_site_label
 _atom_site_symmetry_multiplicity
 _atom_site_fract_x
 _atom_site_fract_y
 _atom_site_fract_z
 _atom_site_occupancy
  K  K1  1  0.749273  0.498545  0.750000  1.0
  K  K2  1  0.250727  0.501455  0.250000  1.0
  Zr  Zr3  1  0.000000  0.000000  0.000000  1.0
  Zr  Zr4  1  0.000000  0.000000  0.500000  1.0
  Cu  Cu5  1  0.468513  0.937026  0.750000  1.0
  Cu  Cu6  1  0.531487  0.062974  0.250000  1.0
  Se  Se7  1  0.377598  0.755197  0.945923  1.0
  Se  Se8  1  0.931709  0.863419  0.250000  1.0
  Se  Se9  1  0.622402  0.244803  0.445923  1.0
  Se  Se10  1  0.622402  0.244803  0.054077  1.0
  Se  Se11  1  0.377598  0.755197  0.554077  1.0
  Se  Se12  1  0.068291  0.136581  0.750000  1.0
