# generated using pymatgen
data_La3(TaN3)2
_symmetry_space_group_name_H-M   'P 1'
_cell_length_a   4.08892004
_cell_length_b   4.08892004
_cell_length_c   10.49780875
_cell_angle_alpha   101.23018511
_cell_angle_beta   101.23018511
_cell_angle_gamma   90.00000007
_symmetry_Int_Tables_number   1
_chemical_formula_structural   La3(TaN3)2
_chemical_formula_sum   'La3 Ta2 N6'
_cell_volume   168.72743984
_cell_formula_units_Z   1
loop_
 _symmetry_equiv_pos_site_id
 _symmetry_equiv_pos_as_xyz
  1  'x, y, z'
loop_
 _atom_site_type_symbol
 _atom_site_label
 _atom_site_symmetry_multiplicity
 _atom_site_fract_x
 _atom_site_fract_y
 _atom_site_fract_z
 _atom_site_occupancy
  La  La1  1  0.180545  0.180545  0.361090  1.0
  La  La2  1  0.819455  0.819455  0.638910  1.0
  La  La3  1  0.000000  0.000000  0.000000  1.0
  Ta  Ta4  1  0.601070  0.601070  0.202139  1.0
  Ta  Ta5  1  0.398930  0.398930  0.797861  1.0
  N  N6  1  0.585536  0.085536  0.171072  1.0
  N  N7  1  0.085536  0.585536  0.171072  1.0
  N  N8  1  0.414464  0.914464  0.828928  1.0
  N  N9  1  0.914464  0.414464  0.828928  1.0
  N  N10  1  0.698038  0.698038  0.396076  1.0
  N  N11  1  0.301962  0.301962  0.603924  1.0
