# generated using pymatgen
data_Mn2SiRh
_symmetry_space_group_name_H-M   'P 1'
_cell_length_a   4.23887863
_cell_length_b   4.23887792
_cell_length_c   4.23888428
_cell_angle_alpha   60.00004972
_cell_angle_beta   60.00007731
_cell_angle_gamma   60.00009370
_symmetry_Int_Tables_number   1
_chemical_formula_structural   Mn2SiRh
_chemical_formula_sum   'Mn2 Si1 Rh1'
_cell_volume   53.85663044
_cell_formula_units_Z   1
loop_
 _symmetry_equiv_pos_site_id
 _symmetry_equiv_pos_as_xyz
  1  'x, y, z'
loop_
 _atom_site_type_symbol
 _atom_site_label
 _atom_site_symmetry_multiplicity
 _atom_site_fract_x
 _atom_site_fract_y
 _atom_site_fract_z
 _atom_site_occupancy
  Mn  Mn1  1  0.999999  0.000000  0.000001  1.0
  Mn  Mn2  1  0.500001  0.500000  0.499999  1.0
  Si  Si3  1  0.250000  0.250000  0.250000  1.0
  Rh  Rh4  1  0.750000  0.750000  0.750000  1.0
