# generated using pymatgen
data_CoAs
_symmetry_space_group_name_H-M   'P 1'
_cell_length_a   3.55986347
_cell_length_b   5.03579464
_cell_length_c   6.16906789
_cell_angle_alpha   90.00000000
_cell_angle_beta   90.00000000
_cell_angle_gamma   90.00000000
_symmetry_Int_Tables_number   1
_chemical_formula_structural   CoAs
_chemical_formula_sum   'Co4 As4'
_cell_volume   110.59128463
_cell_formula_units_Z   4
loop_
 _symmetry_equiv_pos_site_id
 _symmetry_equiv_pos_as_xyz
  1  'x, y, z'
loop_
 _atom_site_type_symbol
 _atom_site_label
 _atom_site_symmetry_multiplicity
 _atom_site_fract_x
 _atom_site_fract_y
 _atom_site_fract_z
 _atom_site_occupancy
  Co  Co1  1  0.250000  0.500000  0.250000  1.0
  Co  Co2  1  0.250000  0.000000  0.250000  1.0
  Co  Co3  1  0.750000  0.000000  0.750000  1.0
  Co  Co4  1  0.750000  0.500000  0.750000  1.0
  As  As5  1  0.750000  0.750000  0.416889  1.0
  As  As6  1  0.250000  0.750000  0.916889  1.0
  As  As7  1  0.250000  0.250000  0.583111  1.0
  As  As8  1  0.750000  0.250000  0.083111  1.0
