# generated using pymatgen
data_HfSiNi
_symmetry_space_group_name_H-M   'P 1'
_cell_length_a   4.15185224
_cell_length_b   4.15185188
_cell_length_c   4.15185491
_cell_angle_alpha   59.99965842
_cell_angle_beta   59.99967917
_cell_angle_gamma   59.99970286
_symmetry_Int_Tables_number   1
_chemical_formula_structural   HfSiNi
_chemical_formula_sum   'Hf1 Si1 Ni1'
_cell_volume   50.60667006
_cell_formula_units_Z   1
loop_
 _symmetry_equiv_pos_site_id
 _symmetry_equiv_pos_as_xyz
  1  'x, y, z'
loop_
 _atom_site_type_symbol
 _atom_site_label
 _atom_site_symmetry_multiplicity
 _atom_site_fract_x
 _atom_site_fract_y
 _atom_site_fract_z
 _atom_site_occupancy
  Hf  Hf1  1  0.000000  0.000000  0.000000  1.0
  Si  Si2  1  0.250000  0.250000  0.249999  1.0
  Ni  Ni3  1  0.500000  0.500000  0.500001  1.0
