# generated using pymatgen
data_ScB2
_symmetry_space_group_name_H-M   'P 1'
_cell_length_a   4.33171552
_cell_length_b   4.33171583
_cell_length_c   4.33171584
_cell_angle_alpha   60.00000465
_cell_angle_beta   60.00000226
_cell_angle_gamma   60.00000388
_symmetry_Int_Tables_number   1
_chemical_formula_structural   ScB2
_chemical_formula_sum   'Sc2 B4'
_cell_volume   57.47313432
_cell_formula_units_Z   2
loop_
 _symmetry_equiv_pos_site_id
 _symmetry_equiv_pos_as_xyz
  1  'x, y, z'
loop_
 _atom_site_type_symbol
 _atom_site_label
 _atom_site_symmetry_multiplicity
 _atom_site_fract_x
 _atom_site_fract_y
 _atom_site_fract_z
 _atom_site_occupancy
  Sc  Sc1  1  0.875000  0.875000  0.875000  1.0
  Sc  Sc2  1  0.125000  0.125000  0.125000  1.0
  B  B3  1  0.500000  0.000000  0.500000  1.0
  B  B4  1  0.000000  0.500000  0.500000  1.0
  B  B5  1  0.500000  0.500000  0.500000  1.0
  B  B6  1  0.500000  0.500000  0.000000  1.0
