# generated using pymatgen
data_Gd2Zr2O7
_symmetry_space_group_name_H-M   'P 1'
_cell_length_a   7.54978880
_cell_length_b   7.54978880
_cell_length_c   7.54978880
_cell_angle_alpha   60.00000000
_cell_angle_beta   90.00000000
_cell_angle_gamma   120.00000000
_symmetry_Int_Tables_number   1
_chemical_formula_structural   Gd2Zr2O7
_chemical_formula_sum   'Gd4 Zr4 O14'
_cell_volume   304.29121222
_cell_formula_units_Z   2
loop_
 _symmetry_equiv_pos_site_id
 _symmetry_equiv_pos_as_xyz
  1  'x, y, z'
loop_
 _atom_site_type_symbol
 _atom_site_label
 _atom_site_symmetry_multiplicity
 _atom_site_fract_x
 _atom_site_fract_y
 _atom_site_fract_z
 _atom_site_occupancy
  Gd  Gd1  1  0.000000  0.000000  0.000000  1.0
  Gd  Gd2  1  0.500000  0.500000  0.000000  1.0
  Gd  Gd3  1  0.000000  0.000000  0.500000  1.0
  Gd  Gd4  1  0.000000  0.500000  0.000000  1.0
  Zr  Zr5  1  0.500000  0.000000  0.000000  1.0
  Zr  Zr6  1  0.500000  0.000000  0.500000  1.0
  Zr  Zr7  1  0.500000  0.500000  0.500000  1.0
  Zr  Zr8  1  0.000000  0.500000  0.500000  1.0
  O  O9  1  0.588510  0.177021  0.161490  1.0
  O  O10  1  0.838510  0.250000  0.411490  1.0
  O  O11  1  0.125000  0.250000  0.125000  1.0
  O  O12  1  0.838510  0.250000  0.838510  1.0
  O  O13  1  0.838510  0.677021  0.411490  1.0
  O  O14  1  0.411490  0.250000  0.411490  1.0
  O  O15  1  0.588510  0.750000  0.161490  1.0
  O  O16  1  0.411490  0.250000  0.838510  1.0
  O  O17  1  0.161490  0.322979  0.588510  1.0
  O  O18  1  0.588510  0.750000  0.588510  1.0
  O  O19  1  0.161490  0.750000  0.161490  1.0
  O  O20  1  0.875000  0.750000  0.875000  1.0
  O  O21  1  0.161490  0.750000  0.588510  1.0
  O  O22  1  0.411490  0.822979  0.838510  1.0
