# generated using pymatgen
data_Sc2CuIr
_symmetry_space_group_name_H-M   'P 1'
_cell_length_a   4.57582720
_cell_length_b   4.57581519
_cell_length_c   4.57582993
_cell_angle_alpha   59.99993498
_cell_angle_beta   59.99981643
_cell_angle_gamma   60.00001099
_symmetry_Int_Tables_number   1
_chemical_formula_structural   Sc2CuIr
_chemical_formula_sum   'Sc2 Cu1 Ir1'
_cell_volume   67.74733068
_cell_formula_units_Z   1
loop_
 _symmetry_equiv_pos_site_id
 _symmetry_equiv_pos_as_xyz
  1  'x, y, z'
loop_
 _atom_site_type_symbol
 _atom_site_label
 _atom_site_symmetry_multiplicity
 _atom_site_fract_x
 _atom_site_fract_y
 _atom_site_fract_z
 _atom_site_occupancy
  Sc  Sc1  1  0.999997  0.999996  0.000001  1.0
  Sc  Sc2  1  0.500002  0.500005  0.499997  1.0
  Cu  Cu3  1  0.249999  0.249998  0.249998  1.0
  Ir  Ir4  1  0.750000  0.749999  0.750002  1.0
