# generated using pymatgen
data_AgAsS
_symmetry_space_group_name_H-M   'P 1'
_cell_length_a   12.12033929
_cell_length_b   6.08320636
_cell_length_c   3.96897119
_cell_angle_alpha   90.00000000
_cell_angle_beta   90.00000000
_cell_angle_gamma   90.00000000
_symmetry_Int_Tables_number   1
_chemical_formula_structural   AgAsS
_chemical_formula_sum   'Ag4 As4 S4'
_cell_volume   292.63432976
_cell_formula_units_Z   4
loop_
 _symmetry_equiv_pos_site_id
 _symmetry_equiv_pos_as_xyz
  1  'x, y, z'
loop_
 _atom_site_type_symbol
 _atom_site_label
 _atom_site_symmetry_multiplicity
 _atom_site_fract_x
 _atom_site_fract_y
 _atom_site_fract_z
 _atom_site_occupancy
  Ag  Ag1  1  0.831543  0.065908  0.248015  1.0
  Ag  Ag2  1  0.331542  0.434093  0.248015  1.0
  Ag  Ag3  1  0.668458  0.565908  0.748016  1.0
  Ag  Ag4  1  0.168458  0.934093  0.748016  1.0
  As  As5  1  0.488833  0.135353  0.247106  1.0
  As  As6  1  0.988834  0.364646  0.247106  1.0
  As  As7  1  0.011167  0.635355  0.747105  1.0
  As  As8  1  0.511166  0.864647  0.747105  1.0
  S  S9  1  0.155830  0.202652  0.247880  1.0
  S  S10  1  0.655831  0.297350  0.247880  1.0
  S  S11  1  0.344169  0.702651  0.747879  1.0
  S  S12  1  0.844169  0.797349  0.747879  1.0
