# generated using pymatgen
data_LiNpIr2
_symmetry_space_group_name_H-M   'P 1'
_cell_length_a   4.53998374
_cell_length_b   4.53998374
_cell_length_c   4.53998374
_cell_angle_alpha   59.97481380
_cell_angle_beta   59.97481380
_cell_angle_gamma   59.97481380
_symmetry_Int_Tables_number   1
_chemical_formula_structural   LiNpIr2
_chemical_formula_sum   'Li1 Np1 Ir2'
_cell_volume   66.13019258
_cell_formula_units_Z   1
loop_
 _symmetry_equiv_pos_site_id
 _symmetry_equiv_pos_as_xyz
  1  'x, y, z'
loop_
 _atom_site_type_symbol
 _atom_site_label
 _atom_site_symmetry_multiplicity
 _atom_site_fract_x
 _atom_site_fract_y
 _atom_site_fract_z
 _atom_site_occupancy
  Li  Li1  1  0.249995  0.249995  0.249995  1.0
  Np  Np2  1  0.749984  0.749984  0.749984  1.0
  Ir  Ir3  1  0.999983  0.999983  0.999983  1.0
  Ir  Ir4  1  0.500036  0.500036  0.500036  1.0
