# generated using pymatgen
data_La2O3
_symmetry_space_group_name_H-M   'P 1'
_cell_length_a   7.91962696
_cell_length_b   4.57239937
_cell_length_c   4.57239941
_cell_angle_alpha   90.00000024
_cell_angle_beta   54.73561085
_cell_angle_gamma   54.73561048
_symmetry_Int_Tables_number   1
_chemical_formula_structural   La2O3
_chemical_formula_sum   'La2 O3'
_cell_volume   95.59439302
_cell_formula_units_Z   1
loop_
 _symmetry_equiv_pos_site_id
 _symmetry_equiv_pos_as_xyz
  1  'x, y, z'
loop_
 _atom_site_type_symbol
 _atom_site_label
 _atom_site_symmetry_multiplicity
 _atom_site_fract_x
 _atom_site_fract_y
 _atom_site_fract_z
 _atom_site_occupancy
  La  La1  1  0.000000  0.000000  0.000000  1.0
  La  La2  1  0.500000  0.000000  0.000000  1.0
  O  O3  1  0.000000  0.500000  0.500000  1.0
  O  O4  1  0.500000  0.000000  0.500000  1.0
  O  O5  1  0.500000  0.500000  0.000000  1.0
