# generated using pymatgen
data_NbInRu2
_symmetry_space_group_name_H-M   'P 1'
_cell_length_a   4.51885308
_cell_length_b   4.52605493
_cell_length_c   4.51980710
_cell_angle_alpha   59.77981875
_cell_angle_beta   59.99975129
_cell_angle_gamma   60.09297956
_symmetry_Int_Tables_number   1
_chemical_formula_structural   NbInRu2
_chemical_formula_sum   'Nb1 In1 Ru2'
_cell_volume   65.30214905
_cell_formula_units_Z   1
loop_
 _symmetry_equiv_pos_site_id
 _symmetry_equiv_pos_as_xyz
  1  'x, y, z'
loop_
 _atom_site_type_symbol
 _atom_site_label
 _atom_site_symmetry_multiplicity
 _atom_site_fract_x
 _atom_site_fract_y
 _atom_site_fract_z
 _atom_site_occupancy
  Nb  Nb1  1  0.750038  0.750052  0.750525  1.0
  In  In2  1  0.250011  0.249963  0.249903  1.0
  Ru  Ru3  1  0.999823  0.000087  0.000321  1.0
  Ru  Ru4  1  0.500128  0.499898  0.499251  1.0
