# generated using pymatgen
data_ZrO2
_symmetry_space_group_name_H-M   'P 1'
_cell_length_a   4.06299005
_cell_length_b   6.11032969
_cell_length_c   4.06298129
_cell_angle_alpha   70.57596277
_cell_angle_beta   90.00000000
_cell_angle_gamma   109.41870569
_symmetry_Int_Tables_number   1
_chemical_formula_structural   ZrO2
_chemical_formula_sum   'Zr2 O4'
_cell_volume   89.02004212
_cell_formula_units_Z   2
loop_
 _symmetry_equiv_pos_site_id
 _symmetry_equiv_pos_as_xyz
  1  'x, y, z'
loop_
 _atom_site_type_symbol
 _atom_site_label
 _atom_site_symmetry_multiplicity
 _atom_site_fract_x
 _atom_site_fract_y
 _atom_site_fract_z
 _atom_site_occupancy
  Zr  Zr1  1  0.000001  0.000001  0.999945  1.0
  Zr  Zr2  1  0.749999  0.499999  0.750055  1.0
  O  O3  1  0.798211  0.596423  0.201797  1.0
  O  O4  1  0.201785  0.403570  0.797989  1.0
  O  O5  1  0.951789  0.903577  0.548203  1.0
  O  O6  1  0.548215  0.096430  0.952011  1.0
