# generated using pymatgen
data_PrMgNi4
_symmetry_space_group_name_H-M   'P 1'
_cell_length_a   5.05425006
_cell_length_b   5.05425006
_cell_length_c   5.05425006
_cell_angle_alpha   60.00000000
_cell_angle_beta   60.00000000
_cell_angle_gamma   60.00000000
_symmetry_Int_Tables_number   1
_chemical_formula_structural   PrMgNi4
_chemical_formula_sum   'Pr1 Mg1 Ni4'
_cell_volume   91.29672040
_cell_formula_units_Z   1
loop_
 _symmetry_equiv_pos_site_id
 _symmetry_equiv_pos_as_xyz
  1  'x, y, z'
loop_
 _atom_site_type_symbol
 _atom_site_label
 _atom_site_symmetry_multiplicity
 _atom_site_fract_x
 _atom_site_fract_y
 _atom_site_fract_z
 _atom_site_occupancy
  Pr  Pr1  1  0.000000  0.000000  0.000000  1.0
  Mg  Mg2  1  0.750000  0.750000  0.750000  1.0
  Ni  Ni3  1  0.870063  0.376646  0.376646  1.0
  Ni  Ni4  1  0.376646  0.870063  0.376646  1.0
  Ni  Ni5  1  0.376646  0.376646  0.870063  1.0
  Ni  Ni6  1  0.376646  0.376646  0.376646  1.0
