# generated using pymatgen
data_ZnSiRh2
_symmetry_space_group_name_H-M   'P 1'
_cell_length_a   4.22721382
_cell_length_b   4.22723960
_cell_length_c   4.22718450
_cell_angle_alpha   60.00004559
_cell_angle_beta   59.99992657
_cell_angle_gamma   60.00020556
_symmetry_Int_Tables_number   1
_chemical_formula_structural   ZnSiRh2
_chemical_formula_sum   'Zn1 Si1 Rh2'
_cell_volume   53.41311042
_cell_formula_units_Z   1
loop_
 _symmetry_equiv_pos_site_id
 _symmetry_equiv_pos_as_xyz
  1  'x, y, z'
loop_
 _atom_site_type_symbol
 _atom_site_label
 _atom_site_symmetry_multiplicity
 _atom_site_fract_x
 _atom_site_fract_y
 _atom_site_fract_z
 _atom_site_occupancy
  Zn  Zn1  1  0.750000  0.749999  0.750001  1.0
  Si  Si2  1  0.250001  0.250000  0.250001  1.0
  Rh  Rh3  1  0.999997  0.000001  0.000001  1.0
  Rh  Rh4  1  0.500001  0.500000  0.499998  1.0
