# generated using pymatgen
data_Li2AcIn
_symmetry_space_group_name_H-M   'P 1'
_cell_length_a   5.18703545
_cell_length_b   5.18703545
_cell_length_c   5.18703545
_cell_angle_alpha   60.21163242
_cell_angle_beta   60.21163242
_cell_angle_gamma   60.21163242
_symmetry_Int_Tables_number   1
_chemical_formula_structural   Li2AcIn
_chemical_formula_sum   'Li2 Ac1 In1'
_cell_volume   99.15593859
_cell_formula_units_Z   1
loop_
 _symmetry_equiv_pos_site_id
 _symmetry_equiv_pos_as_xyz
  1  'x, y, z'
loop_
 _atom_site_type_symbol
 _atom_site_label
 _atom_site_symmetry_multiplicity
 _atom_site_fract_x
 _atom_site_fract_y
 _atom_site_fract_z
 _atom_site_occupancy
  Li  Li1  1  0.499946  0.499946  0.499946  1.0
  Li  Li2  1  0.000055  0.000055  0.000055  1.0
  Ac  Ac3  1  0.250000  0.250000  0.250000  1.0
  In  In4  1  0.750000  0.750000  0.750000  1.0
