# generated using pymatgen
data_Cr2FeS4
_symmetry_space_group_name_H-M   'P 1'
_cell_length_a   7.07830046
_cell_length_b   7.07830046
_cell_length_c   7.07830046
_cell_angle_alpha   59.99999999
_cell_angle_beta   59.99999998
_cell_angle_gamma   59.99999996
_symmetry_Int_Tables_number   1
_chemical_formula_structural   Cr2FeS4
_chemical_formula_sum   'Cr4 Fe2 S8'
_cell_volume   250.76792298
_cell_formula_units_Z   2
loop_
 _symmetry_equiv_pos_site_id
 _symmetry_equiv_pos_as_xyz
  1  'x, y, z'
loop_
 _atom_site_type_symbol
 _atom_site_label
 _atom_site_symmetry_multiplicity
 _atom_site_fract_x
 _atom_site_fract_y
 _atom_site_fract_z
 _atom_site_occupancy
  Cr  Cr1  1  0.500000  0.500000  0.500000  1.0
  Cr  Cr2  1  0.500000  0.500000  0.000000  1.0
  Cr  Cr3  1  0.500000  0.000000  0.500000  1.0
  Cr  Cr4  1  0.000000  0.500000  0.500000  1.0
  Fe  Fe5  1  0.875000  0.875000  0.875000  1.0
  Fe  Fe6  1  0.125000  0.125000  0.125000  1.0
  S  S7  1  0.741576  0.741576  0.741576  1.0
  S  S8  1  0.258423  0.258423  0.724729  1.0
  S  S9  1  0.258423  0.724729  0.258423  1.0
  S  S10  1  0.724729  0.258423  0.258423  1.0
  S  S11  1  0.741576  0.275271  0.741576  1.0
  S  S12  1  0.275271  0.741576  0.741576  1.0
  S  S13  1  0.258423  0.258423  0.258423  1.0
  S  S14  1  0.741576  0.741576  0.275271  1.0
