# generated using pymatgen
data_HfInPd2
_symmetry_space_group_name_H-M   'P 1'
_cell_length_a   4.66596761
_cell_length_b   4.66231076
_cell_length_c   4.66146722
_cell_angle_alpha   60.08380248
_cell_angle_beta   60.05203019
_cell_angle_gamma   60.03550125
_symmetry_Int_Tables_number   1
_chemical_formula_structural   HfInPd2
_chemical_formula_sum   'Hf1 In1 Pd2'
_cell_volume   71.79797528
_cell_formula_units_Z   1
loop_
 _symmetry_equiv_pos_site_id
 _symmetry_equiv_pos_as_xyz
  1  'x, y, z'
loop_
 _atom_site_type_symbol
 _atom_site_label
 _atom_site_symmetry_multiplicity
 _atom_site_fract_x
 _atom_site_fract_y
 _atom_site_fract_z
 _atom_site_occupancy
  Hf  Hf1  1  0.250012  0.249972  0.249939  1.0
  In  In2  1  0.750017  0.750006  0.749986  1.0
  Pd  Pd3  1  0.999878  0.000096  0.000014  1.0
  Pd  Pd4  1  0.500094  0.499926  0.500062  1.0
