# generated using pymatgen
data_LiTmO2
_symmetry_space_group_name_H-M   'P 1'
_cell_length_a   3.31372898
_cell_length_b   5.39470416
_cell_length_c   3.31372918
_cell_angle_alpha   107.88623347
_cell_angle_beta   60.00000201
_cell_angle_gamma   107.88623306
_symmetry_Int_Tables_number   1
_chemical_formula_structural   LiTmO2
_chemical_formula_sum   'Li1 Tm1 O2'
_cell_volume   47.96728033
_cell_formula_units_Z   1
loop_
 _symmetry_equiv_pos_site_id
 _symmetry_equiv_pos_as_xyz
  1  'x, y, z'
loop_
 _atom_site_type_symbol
 _atom_site_label
 _atom_site_symmetry_multiplicity
 _atom_site_fract_x
 _atom_site_fract_y
 _atom_site_fract_z
 _atom_site_occupancy
  Li  Li1  1  0.000000  0.000000  0.000000  1.0
  Tm  Tm2  1  0.500000  0.500000  0.500000  1.0
  O  O3  1  0.244392  0.733174  0.244392  1.0
  O  O4  1  0.755608  0.266826  0.755608  1.0
