# generated using pymatgen
data_Ho2AgIr
_symmetry_space_group_name_H-M   'P 1'
_cell_length_a   4.95301381
_cell_length_b   4.95300627
_cell_length_c   4.95300537
_cell_angle_alpha   59.99999731
_cell_angle_beta   59.99997488
_cell_angle_gamma   59.99995924
_symmetry_Int_Tables_number   1
_chemical_formula_structural   Ho2AgIr
_chemical_formula_sum   'Ho2 Ag1 Ir1'
_cell_volume   85.91954977
_cell_formula_units_Z   1
loop_
 _symmetry_equiv_pos_site_id
 _symmetry_equiv_pos_as_xyz
  1  'x, y, z'
loop_
 _atom_site_type_symbol
 _atom_site_label
 _atom_site_symmetry_multiplicity
 _atom_site_fract_x
 _atom_site_fract_y
 _atom_site_fract_z
 _atom_site_occupancy
  Ho  Ho1  1  0.000000  0.000000  0.000000  1.0
  Ho  Ho2  1  0.499999  0.499999  0.499999  1.0
  Ag  Ag3  1  0.250000  0.250000  0.250000  1.0
  Ir  Ir4  1  0.749999  0.749999  0.749999  1.0
