# generated using pymatgen
data_LuTaOs2
_symmetry_space_group_name_H-M   'P 1'
_cell_length_a   4.59881528
_cell_length_b   4.59881390
_cell_length_c   4.59883637
_cell_angle_alpha   59.99985423
_cell_angle_beta   60.00026311
_cell_angle_gamma   60.00027023
_symmetry_Int_Tables_number   1
_chemical_formula_structural   LuTaOs2
_chemical_formula_sum   'Lu1 Ta1 Os2'
_cell_volume   68.77427686
_cell_formula_units_Z   1
loop_
 _symmetry_equiv_pos_site_id
 _symmetry_equiv_pos_as_xyz
  1  'x, y, z'
loop_
 _atom_site_type_symbol
 _atom_site_label
 _atom_site_symmetry_multiplicity
 _atom_site_fract_x
 _atom_site_fract_y
 _atom_site_fract_z
 _atom_site_occupancy
  Lu  Lu1  1  0.249999  0.250000  0.250002  1.0
  Ta  Ta2  1  0.749999  0.750001  0.750001  1.0
  Os  Os3  1  0.000000  0.000000  0.999998  1.0
  Os  Os4  1  0.500002  0.500000  0.500000  1.0
