# generated using pymatgen
data_TiMnCo2
_symmetry_space_group_name_H-M   'P 1'
_cell_length_a   4.13115642
_cell_length_b   4.13115652
_cell_length_c   4.13115699
_cell_angle_alpha   59.99990697
_cell_angle_beta   59.99990437
_cell_angle_gamma   59.99989310
_symmetry_Int_Tables_number   1
_chemical_formula_structural   TiMnCo2
_chemical_formula_sum   'Ti1 Mn1 Co2'
_cell_volume   49.85388644
_cell_formula_units_Z   1
loop_
 _symmetry_equiv_pos_site_id
 _symmetry_equiv_pos_as_xyz
  1  'x, y, z'
loop_
 _atom_site_type_symbol
 _atom_site_label
 _atom_site_symmetry_multiplicity
 _atom_site_fract_x
 _atom_site_fract_y
 _atom_site_fract_z
 _atom_site_occupancy
  Ti  Ti1  1  0.750000  0.750001  0.750000  1.0
  Mn  Mn2  1  0.250003  0.250001  0.250002  1.0
  Co  Co3  1  0.999999  0.000000  0.000000  1.0
  Co  Co4  1  0.500000  0.500001  0.500000  1.0
