# generated using pymatgen
data_Li2GaIr
_symmetry_space_group_name_H-M   'P 1'
_cell_length_a   4.16743943
_cell_length_b   4.16743941
_cell_length_c   4.16743965
_cell_angle_alpha   59.99999817
_cell_angle_beta   59.99999837
_cell_angle_gamma   59.99999444
_symmetry_Int_Tables_number   1
_chemical_formula_structural   Li2GaIr
_chemical_formula_sum   'Li2 Ga1 Ir1'
_cell_volume   51.17912809
_cell_formula_units_Z   1
loop_
 _symmetry_equiv_pos_site_id
 _symmetry_equiv_pos_as_xyz
  1  'x, y, z'
loop_
 _atom_site_type_symbol
 _atom_site_label
 _atom_site_symmetry_multiplicity
 _atom_site_fract_x
 _atom_site_fract_y
 _atom_site_fract_z
 _atom_site_occupancy
  Li  Li1  1  0.250000  0.250000  0.250000  1.0
  Li  Li2  1  0.750000  0.750000  0.750000  1.0
  Ga  Ga3  1  0.000000  0.000000  0.000000  1.0
  Ir  Ir4  1  0.500000  0.500000  0.500000  1.0
