# generated using pymatgen
data_Tl3Si
_symmetry_space_group_name_H-M   'P 1'
_cell_length_a   5.37740565
_cell_length_b   5.37739999
_cell_length_c   5.37740424
_cell_angle_alpha   59.99995650
_cell_angle_beta   59.99999130
_cell_angle_gamma   59.99996520
_symmetry_Int_Tables_number   1
_chemical_formula_structural   Tl3Si
_chemical_formula_sum   'Tl3 Si1'
_cell_volume   109.95185053
_cell_formula_units_Z   1
loop_
 _symmetry_equiv_pos_site_id
 _symmetry_equiv_pos_as_xyz
  1  'x, y, z'
loop_
 _atom_site_type_symbol
 _atom_site_label
 _atom_site_symmetry_multiplicity
 _atom_site_fract_x
 _atom_site_fract_y
 _atom_site_fract_z
 _atom_site_occupancy
  Tl  Tl1  1  0.000000  0.000000  0.000000  1.0
  Tl  Tl2  1  0.499999  0.499999  0.499999  1.0
  Tl  Tl3  1  0.250001  0.250001  0.250001  1.0
  Si  Si4  1  0.750000  0.750000  0.750000  1.0
