# generated using pymatgen
data_Al2CoIr
_symmetry_space_group_name_H-M   'P 1'
_cell_length_a   4.17493134
_cell_length_b   4.17493159
_cell_length_c   4.17493114
_cell_angle_alpha   59.99996476
_cell_angle_beta   59.99999003
_cell_angle_gamma   59.99997798
_symmetry_Int_Tables_number   1
_chemical_formula_structural   Al2CoIr
_chemical_formula_sum   'Al2 Co1 Ir1'
_cell_volume   51.45561810
_cell_formula_units_Z   1
loop_
 _symmetry_equiv_pos_site_id
 _symmetry_equiv_pos_as_xyz
  1  'x, y, z'
loop_
 _atom_site_type_symbol
 _atom_site_label
 _atom_site_symmetry_multiplicity
 _atom_site_fract_x
 _atom_site_fract_y
 _atom_site_fract_z
 _atom_site_occupancy
  Al  Al1  1  0.500000  0.500000  0.500000  1.0
  Al  Al2  1  0.000000  0.000000  0.000000  1.0
  Co  Co3  1  0.249999  0.249999  0.249999  1.0
  Ir  Ir4  1  0.750001  0.750001  0.750001  1.0
