# generated using pymatgen
data_Mn3Al
_symmetry_space_group_name_H-M   'P 1'
_cell_length_a   4.04186628
_cell_length_b   4.04186652
_cell_length_c   4.04186462
_cell_angle_alpha   59.99986533
_cell_angle_beta   59.99984172
_cell_angle_gamma   59.99985312
_symmetry_Int_Tables_number   1
_chemical_formula_structural   Mn3Al
_chemical_formula_sum   'Mn3 Al1'
_cell_volume   46.69057582
_cell_formula_units_Z   1
loop_
 _symmetry_equiv_pos_site_id
 _symmetry_equiv_pos_as_xyz
  1  'x, y, z'
loop_
 _atom_site_type_symbol
 _atom_site_label
 _atom_site_symmetry_multiplicity
 _atom_site_fract_x
 _atom_site_fract_y
 _atom_site_fract_z
 _atom_site_occupancy
  Mn  Mn1  1  0.000000  0.000000  0.000001  1.0
  Mn  Mn2  1  0.499999  0.500000  0.499999  1.0
  Mn  Mn3  1  0.250001  0.249999  0.249999  1.0
  Al  Al4  1  0.750000  0.750001  0.750001  1.0
