# generated using pymatgen
data_YbDyHg2
_symmetry_space_group_name_H-M   'P 1'
_cell_length_a   5.26875009
_cell_length_b   5.26875009
_cell_length_c   5.26875009
_cell_angle_alpha   60.00000000
_cell_angle_beta   60.00000000
_cell_angle_gamma   60.00000000
_symmetry_Int_Tables_number   1
_chemical_formula_structural   YbDyHg2
_chemical_formula_sum   'Yb1 Dy1 Hg2'
_cell_volume   103.42077796
_cell_formula_units_Z   1
loop_
 _symmetry_equiv_pos_site_id
 _symmetry_equiv_pos_as_xyz
  1  'x, y, z'
loop_
 _atom_site_type_symbol
 _atom_site_label
 _atom_site_symmetry_multiplicity
 _atom_site_fract_x
 _atom_site_fract_y
 _atom_site_fract_z
 _atom_site_occupancy
  Yb  Yb1  1  0.750000  0.750000  0.750000  1.0
  Dy  Dy2  1  0.250001  0.250001  0.250001  1.0
  Hg  Hg3  1  0.000000  0.000000  0.000000  1.0
  Hg  Hg4  1  0.499999  0.499999  0.499999  1.0
