# generated using pymatgen
data_SnO2
_symmetry_space_group_name_H-M   'P 1'
_cell_length_a   5.15095558
_cell_length_b   5.15095532
_cell_length_c   5.15095518
_cell_angle_alpha   36.59372121
_cell_angle_beta   36.59372262
_cell_angle_gamma   36.59372532
_symmetry_Int_Tables_number   1
_chemical_formula_structural   SnO2
_chemical_formula_sum   'Sn1 O2'
_cell_volume   43.48661223
_cell_formula_units_Z   1
loop_
 _symmetry_equiv_pos_site_id
 _symmetry_equiv_pos_as_xyz
  1  'x, y, z'
loop_
 _atom_site_type_symbol
 _atom_site_label
 _atom_site_symmetry_multiplicity
 _atom_site_fract_x
 _atom_site_fract_y
 _atom_site_fract_z
 _atom_site_occupancy
  Sn  Sn1  1  0.500002  0.499999  0.500000  1.0
  O  O2  1  0.762832  0.762829  0.762830  1.0
  O  O3  1  0.237171  0.237168  0.237169  1.0
