# generated using pymatgen
data_NbSe2
_symmetry_space_group_name_H-M   'P 1'
_cell_length_a   3.48940398
_cell_length_b   3.48940398
_cell_length_c   13.75699889
_cell_angle_alpha   90.00000000
_cell_angle_beta   90.00000000
_cell_angle_gamma   120.00000001
_symmetry_Int_Tables_number   1
_chemical_formula_structural   NbSe2
_chemical_formula_sum   'Nb2 Se4'
_cell_volume   145.06306124
_cell_formula_units_Z   2
loop_
 _symmetry_equiv_pos_site_id
 _symmetry_equiv_pos_as_xyz
  1  'x, y, z'
loop_
 _atom_site_type_symbol
 _atom_site_label
 _atom_site_symmetry_multiplicity
 _atom_site_fract_x
 _atom_site_fract_y
 _atom_site_fract_z
 _atom_site_occupancy
  Nb  Nb1  1  0.000000  0.000000  0.750000  1.0
  Nb  Nb2  1  0.000000  0.000000  0.250000  1.0
  Se  Se3  1  0.333333  0.666667  0.127592  1.0
  Se  Se4  1  0.666667  0.333333  0.627592  1.0
  Se  Se5  1  0.333333  0.666667  0.372408  1.0
  Se  Se6  1  0.666667  0.333333  0.872408  1.0
