# generated using pymatgen
data_Ce2CdPt2
_symmetry_space_group_name_H-M   'P 1'
_cell_length_a   3.75796176
_cell_length_b   7.86963678
_cell_length_c   7.86963678
_cell_angle_alpha   90.00000000
_cell_angle_beta   90.00000000
_cell_angle_gamma   90.00000000
_symmetry_Int_Tables_number   1
_chemical_formula_structural   Ce2CdPt2
_chemical_formula_sum   'Ce4 Cd2 Pt4'
_cell_volume   232.73501765
_cell_formula_units_Z   2
loop_
 _symmetry_equiv_pos_site_id
 _symmetry_equiv_pos_as_xyz
  1  'x, y, z'
loop_
 _atom_site_type_symbol
 _atom_site_label
 _atom_site_symmetry_multiplicity
 _atom_site_fract_x
 _atom_site_fract_y
 _atom_site_fract_z
 _atom_site_occupancy
  Ce  Ce1  1  0.500000  0.330382  0.169618  1.0
  Ce  Ce2  1  0.500000  0.830382  0.330382  1.0
  Ce  Ce3  1  0.500000  0.669618  0.830382  1.0
  Ce  Ce4  1  0.500000  0.169618  0.669618  1.0
  Cd  Cd5  1  0.000000  0.500000  0.500000  1.0
  Cd  Cd6  1  0.000000  0.000000  0.000000  1.0
  Pt  Pt7  1  0.000000  0.867651  0.632349  1.0
  Pt  Pt8  1  0.000000  0.632349  0.132349  1.0
  Pt  Pt9  1  0.000000  0.367651  0.867651  1.0
  Pt  Pt10  1  0.000000  0.132349  0.367651  1.0
