# generated using pymatgen
data_LuReTc2
_symmetry_space_group_name_H-M   'P 1'
_cell_length_a   4.52216720
_cell_length_b   4.52216818
_cell_length_c   4.52216384
_cell_angle_alpha   60.00002597
_cell_angle_beta   60.00003636
_cell_angle_gamma   60.00002374
_symmetry_Int_Tables_number   1
_chemical_formula_structural   LuReTc2
_chemical_formula_sum   'Lu1 Re1 Tc2'
_cell_volume   65.39204257
_cell_formula_units_Z   1
loop_
 _symmetry_equiv_pos_site_id
 _symmetry_equiv_pos_as_xyz
  1  'x, y, z'
loop_
 _atom_site_type_symbol
 _atom_site_label
 _atom_site_symmetry_multiplicity
 _atom_site_fract_x
 _atom_site_fract_y
 _atom_site_fract_z
 _atom_site_occupancy
  Lu  Lu1  1  0.250000  0.250000  0.250000  1.0
  Re  Re2  1  0.750000  0.750000  0.750000  1.0
  Tc  Tc3  1  0.500001  0.500001  0.500001  1.0
  Tc  Tc4  1  0.000000  0.000000  0.000000  1.0
