# generated using pymatgen
data_PaAlCu2
_symmetry_space_group_name_H-M   'P 1'
_cell_length_a   4.61676845
_cell_length_b   4.61676961
_cell_length_c   4.61676847
_cell_angle_alpha   59.99994326
_cell_angle_beta   59.99997305
_cell_angle_gamma   60.00003222
_symmetry_Int_Tables_number   1
_chemical_formula_structural   PaAlCu2
_chemical_formula_sum   'Pa1 Al1 Cu2'
_cell_volume   69.58237123
_cell_formula_units_Z   1
loop_
 _symmetry_equiv_pos_site_id
 _symmetry_equiv_pos_as_xyz
  1  'x, y, z'
loop_
 _atom_site_type_symbol
 _atom_site_label
 _atom_site_symmetry_multiplicity
 _atom_site_fract_x
 _atom_site_fract_y
 _atom_site_fract_z
 _atom_site_occupancy
  Pa  Pa1  1  0.750000  0.750000  0.750000  1.0
  Al  Al2  1  0.249999  0.249999  0.249999  1.0
  Cu  Cu3  1  0.500001  0.500001  0.500001  1.0
  Cu  Cu4  1  0.000000  0.000000  0.000000  1.0
