# generated using pymatgen
data_PaSnAu2
_symmetry_space_group_name_H-M   'P 1'
_cell_length_a   5.01089929
_cell_length_b   5.01089929
_cell_length_c   5.01089929
_cell_angle_alpha   60.06483386
_cell_angle_beta   60.06483386
_cell_angle_gamma   60.06483386
_symmetry_Int_Tables_number   1
_chemical_formula_structural   PaSnAu2
_chemical_formula_sum   'Pa1 Sn1 Au2'
_cell_volume   89.09835473
_cell_formula_units_Z   1
loop_
 _symmetry_equiv_pos_site_id
 _symmetry_equiv_pos_as_xyz
  1  'x, y, z'
loop_
 _atom_site_type_symbol
 _atom_site_label
 _atom_site_symmetry_multiplicity
 _atom_site_fract_x
 _atom_site_fract_y
 _atom_site_fract_z
 _atom_site_occupancy
  Pa  Pa1  1  0.249999  0.249999  0.249999  1.0
  Sn  Sn2  1  0.750001  0.750001  0.750001  1.0
  Au  Au3  1  0.500008  0.500008  0.500008  1.0
  Au  Au4  1  0.999992  0.999992  0.999992  1.0
