# generated using pymatgen
data_DyCu5
_symmetry_space_group_name_H-M   'P 1'
_cell_length_a   4.96399445
_cell_length_b   4.96399445
_cell_length_c   4.96399445
_cell_angle_alpha   60.00000008
_cell_angle_beta   60.00000006
_cell_angle_gamma   60.00000002
_symmetry_Int_Tables_number   1
_chemical_formula_structural   DyCu5
_chemical_formula_sum   'Dy1 Cu5'
_cell_volume   86.49258250
_cell_formula_units_Z   1
loop_
 _symmetry_equiv_pos_site_id
 _symmetry_equiv_pos_as_xyz
  1  'x, y, z'
loop_
 _atom_site_type_symbol
 _atom_site_label
 _atom_site_symmetry_multiplicity
 _atom_site_fract_x
 _atom_site_fract_y
 _atom_site_fract_z
 _atom_site_occupancy
  Dy  Dy1  1  0.000000  0.000000  0.000000  1.0
  Cu  Cu2  1  0.250000  0.250000  0.250000  1.0
  Cu  Cu3  1  0.623793  0.623793  0.623793  1.0
  Cu  Cu4  1  0.623793  0.623793  0.128622  1.0
  Cu  Cu5  1  0.128622  0.623793  0.623793  1.0
  Cu  Cu6  1  0.623793  0.128622  0.623793  1.0
