# generated using pymatgen
data_SrH3
_symmetry_space_group_name_H-M   'P 1'
_cell_length_a   4.02459911
_cell_length_b   4.02459911
_cell_length_c   4.02459911
_cell_angle_alpha   120.08908647
_cell_angle_beta   120.08908647
_cell_angle_gamma   89.84576684
_symmetry_Int_Tables_number   1
_chemical_formula_structural   SrH3
_chemical_formula_sum   'Sr1 H3'
_cell_volume   46.03265118
_cell_formula_units_Z   1
loop_
 _symmetry_equiv_pos_site_id
 _symmetry_equiv_pos_as_xyz
  1  'x, y, z'
loop_
 _atom_site_type_symbol
 _atom_site_label
 _atom_site_symmetry_multiplicity
 _atom_site_fract_x
 _atom_site_fract_y
 _atom_site_fract_z
 _atom_site_occupancy
  Sr  Sr1  1  0.000000  0.000000  0.000000  1.0
  H  H2  1  0.750000  0.250000  0.500000  1.0
  H  H3  1  0.250000  0.750000  0.500000  1.0
  H  H4  1  0.499999  0.499999  0.000000  1.0
