# generated using pymatgen
data_Mg2Si
_symmetry_space_group_name_H-M   'P 1'
_cell_length_a   5.58851815
_cell_length_b   5.58851806
_cell_length_c   5.58851735
_cell_angle_alpha   60.00000413
_cell_angle_beta   60.00000465
_cell_angle_gamma   59.99999662
_symmetry_Int_Tables_number   1
_chemical_formula_structural   Mg2Si
_chemical_formula_sum   'Mg4 Si2'
_cell_volume   123.41698934
_cell_formula_units_Z   2
loop_
 _symmetry_equiv_pos_site_id
 _symmetry_equiv_pos_as_xyz
  1  'x, y, z'
loop_
 _atom_site_type_symbol
 _atom_site_label
 _atom_site_symmetry_multiplicity
 _atom_site_fract_x
 _atom_site_fract_y
 _atom_site_fract_z
 _atom_site_occupancy
  Mg  Mg1  1  0.500000  0.000000  0.500000  1.0
  Mg  Mg2  1  0.000000  0.500000  0.500000  1.0
  Mg  Mg3  1  0.500000  0.500000  0.500000  1.0
  Mg  Mg4  1  0.500000  0.500000  0.000000  1.0
  Si  Si5  1  0.875000  0.875000  0.875000  1.0
  Si  Si6  1  0.125000  0.125000  0.125000  1.0
