# generated using pymatgen
data_PmCdAu2
_symmetry_space_group_name_H-M   'P 1'
_cell_length_a   5.02928319
_cell_length_b   5.02928376
_cell_length_c   5.02928209
_cell_angle_alpha   59.99994828
_cell_angle_beta   59.99993261
_cell_angle_gamma   59.99992712
_symmetry_Int_Tables_number   1
_chemical_formula_structural   PmCdAu2
_chemical_formula_sum   'Pm1 Cd1 Au2'
_cell_volume   89.95029629
_cell_formula_units_Z   1
loop_
 _symmetry_equiv_pos_site_id
 _symmetry_equiv_pos_as_xyz
  1  'x, y, z'
loop_
 _atom_site_type_symbol
 _atom_site_label
 _atom_site_symmetry_multiplicity
 _atom_site_fract_x
 _atom_site_fract_y
 _atom_site_fract_z
 _atom_site_occupancy
  Pm  Pm1  1  0.750000  0.750000  0.750000  1.0
  Cd  Cd2  1  0.249999  0.249999  0.249999  1.0
  Au  Au3  1  0.500001  0.500001  0.500001  1.0
  Au  Au4  1  0.000000  0.000000  0.000000  1.0
