# generated using pymatgen
data_YAlGe
_symmetry_space_group_name_H-M   'P 1'
_cell_length_a   4.07319194
_cell_length_b   5.61818117
_cell_length_c   5.78627263
_cell_angle_alpha   90.00000000
_cell_angle_beta   90.00000000
_cell_angle_gamma   111.25386712
_symmetry_Int_Tables_number   1
_chemical_formula_structural   YAlGe
_chemical_formula_sum   'Y2 Al2 Ge2'
_cell_volume   123.40640107
_cell_formula_units_Z   2
loop_
 _symmetry_equiv_pos_site_id
 _symmetry_equiv_pos_as_xyz
  1  'x, y, z'
loop_
 _atom_site_type_symbol
 _atom_site_label
 _atom_site_symmetry_multiplicity
 _atom_site_fract_x
 _atom_site_fract_y
 _atom_site_fract_z
 _atom_site_occupancy
  Y  Y1  1  0.689744  0.379488  0.250000  1.0
  Y  Y2  1  0.310256  0.620512  0.750000  1.0
  Al  Al3  1  0.000000  0.000000  0.500000  1.0
  Al  Al4  1  0.000000  0.000000  0.000000  1.0
  Ge  Ge5  1  0.605599  0.211198  0.750000  1.0
  Ge  Ge6  1  0.394401  0.788802  0.250000  1.0
