# generated using pymatgen
data_Sc2CoIr
_symmetry_space_group_name_H-M   'P 1'
_cell_length_a   4.50323487
_cell_length_b   4.50322548
_cell_length_c   4.50322045
_cell_angle_alpha   59.99999075
_cell_angle_beta   59.99985103
_cell_angle_gamma   60.00001901
_symmetry_Int_Tables_number   1
_chemical_formula_structural   Sc2CoIr
_chemical_formula_sum   'Sc2 Co1 Ir1'
_cell_volume   64.57375545
_cell_formula_units_Z   1
loop_
 _symmetry_equiv_pos_site_id
 _symmetry_equiv_pos_as_xyz
  1  'x, y, z'
loop_
 _atom_site_type_symbol
 _atom_site_label
 _atom_site_symmetry_multiplicity
 _atom_site_fract_x
 _atom_site_fract_y
 _atom_site_fract_z
 _atom_site_occupancy
  Sc  Sc1  1  0.000000  0.999999  0.000000  1.0
  Sc  Sc2  1  0.500001  0.500001  0.500001  1.0
  Co  Co3  1  0.250000  0.250000  0.250000  1.0
  Ir  Ir4  1  0.749999  0.750000  0.749999  1.0
