# generated using pymatgen
data_Pr2TlAg
_symmetry_space_group_name_H-M   'P 1'
_cell_length_a   5.47846259
_cell_length_b   5.47846307
_cell_length_c   5.47846196
_cell_angle_alpha   59.99994514
_cell_angle_beta   59.99997938
_cell_angle_gamma   60.00000205
_symmetry_Int_Tables_number   1
_chemical_formula_structural   Pr2TlAg
_chemical_formula_sum   'Pr2 Tl1 Ag1'
_cell_volume   116.26817361
_cell_formula_units_Z   1
loop_
 _symmetry_equiv_pos_site_id
 _symmetry_equiv_pos_as_xyz
  1  'x, y, z'
loop_
 _atom_site_type_symbol
 _atom_site_label
 _atom_site_symmetry_multiplicity
 _atom_site_fract_x
 _atom_site_fract_y
 _atom_site_fract_z
 _atom_site_occupancy
  Pr  Pr1  1  0.000000  0.000000  0.000000  1.0
  Pr  Pr2  1  0.500001  0.500001  0.500001  1.0
  Tl  Tl3  1  0.750000  0.750000  0.750000  1.0
  Ag  Ag4  1  0.250000  0.250000  0.250000  1.0
