# generated using pymatgen
data_Sc2IrRh
_symmetry_space_group_name_H-M   'P 1'
_cell_length_a   4.57567260
_cell_length_b   4.57567585
_cell_length_c   4.57567619
_cell_angle_alpha   59.99997684
_cell_angle_beta   59.99982256
_cell_angle_gamma   59.99971066
_symmetry_Int_Tables_number   1
_chemical_formula_structural   Sc2IrRh
_chemical_formula_sum   'Sc2 Ir1 Rh1'
_cell_volume   67.74057358
_cell_formula_units_Z   1
loop_
 _symmetry_equiv_pos_site_id
 _symmetry_equiv_pos_as_xyz
  1  'x, y, z'
loop_
 _atom_site_type_symbol
 _atom_site_label
 _atom_site_symmetry_multiplicity
 _atom_site_fract_x
 _atom_site_fract_y
 _atom_site_fract_z
 _atom_site_occupancy
  Sc  Sc1  1  0.000000  0.999999  0.000000  1.0
  Sc  Sc2  1  0.500001  0.500000  0.500001  1.0
  Ir  Ir3  1  0.250000  0.250001  0.250001  1.0
  Rh  Rh4  1  0.749998  0.749999  0.749998  1.0
