# generated using pymatgen
data_AlPd5I2
_symmetry_space_group_name_H-M   'P 1'
_cell_length_a   4.09948146
_cell_length_b   4.09948147
_cell_length_c   10.78168963
_cell_angle_alpha   100.95938627
_cell_angle_beta   100.95938627
_cell_angle_gamma   90.00000006
_symmetry_Int_Tables_number   1
_chemical_formula_structural   AlPd5I2
_chemical_formula_sum   'Al1 Pd5 I2'
_cell_volume   174.52262425
_cell_formula_units_Z   1
loop_
 _symmetry_equiv_pos_site_id
 _symmetry_equiv_pos_as_xyz
  1  'x, y, z'
loop_
 _atom_site_type_symbol
 _atom_site_label
 _atom_site_symmetry_multiplicity
 _atom_site_fract_x
 _atom_site_fract_y
 _atom_site_fract_z
 _atom_site_occupancy
  Al  Al1  1  0.500000  0.500000  0.000000  1.0
  Pd  Pd2  1  0.085253  0.585253  0.170506  1.0
  Pd  Pd3  1  0.585253  0.085253  0.170506  1.0
  Pd  Pd4  1  0.414747  0.914747  0.829494  1.0
  Pd  Pd5  1  0.914747  0.414747  0.829494  1.0
  Pd  Pd6  1  0.000000  0.000000  0.000000  1.0
  I  I7  1  0.174982  0.174982  0.349964  1.0
  I  I8  1  0.825018  0.825018  0.650036  1.0
