# generated using pymatgen
data_Y2Mo2O7
_symmetry_space_group_name_H-M   'P 1'
_cell_length_a   7.37051308
_cell_length_b   7.37051308
_cell_length_c   7.37051309
_cell_angle_alpha   60.00000001
_cell_angle_beta   60.00000001
_cell_angle_gamma   59.99999998
_symmetry_Int_Tables_number   1
_chemical_formula_structural   Y2Mo2O7
_chemical_formula_sum   'Y4 Mo4 O14'
_cell_volume   283.12496554
_cell_formula_units_Z   2
loop_
 _symmetry_equiv_pos_site_id
 _symmetry_equiv_pos_as_xyz
  1  'x, y, z'
loop_
 _atom_site_type_symbol
 _atom_site_label
 _atom_site_symmetry_multiplicity
 _atom_site_fract_x
 _atom_site_fract_y
 _atom_site_fract_z
 _atom_site_occupancy
  Y  Y1  1  0.500000  0.500000  0.500000  1.0
  Y  Y2  1  0.500000  0.500000  0.000000  1.0
  Y  Y3  1  0.000000  0.500000  0.500000  1.0
  Y  Y4  1  0.499999  0.000000  0.500000  1.0
  Mo  Mo5  1  0.000000  0.000000  0.000000  1.0
  Mo  Mo6  1  0.000000  0.000000  0.500000  1.0
  Mo  Mo7  1  0.499999  0.000000  0.000000  1.0
  Mo  Mo8  1  0.000000  0.500000  0.000000  1.0
  O  O9  1  0.625000  0.625000  0.625000  1.0
  O  O10  1  0.374999  0.375000  0.375000  1.0
  O  O11  1  0.338068  0.911932  0.911933  1.0
  O  O12  1  0.088068  0.661932  0.661934  1.0
  O  O13  1  0.911933  0.338068  0.911933  1.0
  O  O14  1  0.911933  0.911932  0.338067  1.0
  O  O15  1  0.338067  0.338068  0.911932  1.0
  O  O16  1  0.338068  0.911932  0.338067  1.0
  O  O17  1  0.911933  0.338068  0.338067  1.0
  O  O18  1  0.661932  0.661932  0.088068  1.0
  O  O19  1  0.088068  0.088068  0.661932  1.0
  O  O20  1  0.088068  0.661932  0.088068  1.0
  O  O21  1  0.661933  0.088068  0.661933  1.0
  O  O22  1  0.661933  0.088068  0.088067  1.0
