# generated using pymatgen
data_TiInCo2
_symmetry_space_group_name_H-M   'P 1'
_cell_length_a   4.24768886
_cell_length_b   4.24781166
_cell_length_c   4.24818429
_cell_angle_alpha   59.99673611
_cell_angle_beta   60.01411260
_cell_angle_gamma   60.01040669
_symmetry_Int_Tables_number   1
_chemical_formula_structural   TiInCo2
_chemical_formula_sum   'Ti1 In1 Co2'
_cell_volume   54.20957895
_cell_formula_units_Z   1
loop_
 _symmetry_equiv_pos_site_id
 _symmetry_equiv_pos_as_xyz
  1  'x, y, z'
loop_
 _atom_site_type_symbol
 _atom_site_label
 _atom_site_symmetry_multiplicity
 _atom_site_fract_x
 _atom_site_fract_y
 _atom_site_fract_z
 _atom_site_occupancy
  Ti  Ti1  1  0.750005  0.749990  0.750014  1.0
  In  In2  1  0.250002  0.250005  0.249992  1.0
  Co  Co3  1  0.499995  0.500001  0.499998  1.0
  Co  Co4  1  0.999998  0.000004  0.999996  1.0
