# generated using pymatgen
data_Ti2Co
_symmetry_space_group_name_H-M   'P 1'
_cell_length_a   5.00741706
_cell_length_b   5.00741706
_cell_length_c   5.00741706
_cell_angle_alpha   60.00000000
_cell_angle_beta   59.99999999
_cell_angle_gamma   60.00000004
_symmetry_Int_Tables_number   1
_chemical_formula_structural   Ti2Co
_chemical_formula_sum   'Ti4 Co2'
_cell_volume   88.78228046
_cell_formula_units_Z   2
loop_
 _symmetry_equiv_pos_site_id
 _symmetry_equiv_pos_as_xyz
  1  'x, y, z'
loop_
 _atom_site_type_symbol
 _atom_site_label
 _atom_site_symmetry_multiplicity
 _atom_site_fract_x
 _atom_site_fract_y
 _atom_site_fract_z
 _atom_site_occupancy
  Ti  Ti1  1  0.500000  0.000000  0.500000  1.0
  Ti  Ti2  1  0.000000  0.500000  0.500000  1.0
  Ti  Ti3  1  0.500000  0.500000  0.500000  1.0
  Ti  Ti4  1  0.500000  0.500000  0.000000  1.0
  Co  Co5  1  0.125000  0.125000  0.125000  1.0
  Co  Co6  1  0.875000  0.875000  0.875000  1.0
