# generated using pymatgen
data_NaLi2Pb
_symmetry_space_group_name_H-M   'P 1'
_cell_length_a   4.98082980
_cell_length_b   4.98082980
_cell_length_c   4.98082980
_cell_angle_alpha   60.00000000
_cell_angle_beta   60.00000000
_cell_angle_gamma   60.00000000
_symmetry_Int_Tables_number   1
_chemical_formula_structural   NaLi2Pb
_chemical_formula_sum   'Na1 Li2 Pb1'
_cell_volume   87.37558718
_cell_formula_units_Z   1
loop_
 _symmetry_equiv_pos_site_id
 _symmetry_equiv_pos_as_xyz
  1  'x, y, z'
loop_
 _atom_site_type_symbol
 _atom_site_label
 _atom_site_symmetry_multiplicity
 _atom_site_fract_x
 _atom_site_fract_y
 _atom_site_fract_z
 _atom_site_occupancy
  Na  Na1  1  0.249999  0.249999  0.249999  1.0
  Li  Li2  1  0.000000  0.000000  0.000000  1.0
  Li  Li3  1  0.500001  0.500001  0.500001  1.0
  Pb  Pb4  1  0.750000  0.750000  0.750000  1.0
