# generated using pymatgen
data_Sr2ZnN2
_symmetry_space_group_name_H-M   'P 1'
_cell_length_a   3.88439259
_cell_length_b   3.88439259
_cell_length_c   7.00619464
_cell_angle_alpha   106.09383648
_cell_angle_beta   106.09383646
_cell_angle_gamma   89.99999993
_symmetry_Int_Tables_number   1
_chemical_formula_structural   Sr2ZnN2
_chemical_formula_sum   'Sr2 Zn1 N2'
_cell_volume   97.25067010
_cell_formula_units_Z   1
loop_
 _symmetry_equiv_pos_site_id
 _symmetry_equiv_pos_as_xyz
  1  'x, y, z'
loop_
 _atom_site_type_symbol
 _atom_site_label
 _atom_site_symmetry_multiplicity
 _atom_site_fract_x
 _atom_site_fract_y
 _atom_site_fract_z
 _atom_site_occupancy
  Sr  Sr1  1  0.658858  0.658858  0.317716  1.0
  Sr  Sr2  1  0.341142  0.341142  0.682284  1.0
  Zn  Zn3  1  0.000000  0.000000  0.000000  1.0
  N  N4  1  0.856636  0.856636  0.713271  1.0
  N  N5  1  0.143364  0.143364  0.286729  1.0
