# generated using pymatgen
data_Ag2S
_symmetry_space_group_name_H-M   'P 1'
_cell_length_a   4.26353050
_cell_length_b   4.24145676
_cell_length_c   9.01689627
_cell_angle_alpha   107.58797744
_cell_angle_beta   106.67090814
_cell_angle_gamma   111.61896589
_symmetry_Int_Tables_number   1
_chemical_formula_structural   Ag2S
_chemical_formula_sum   'Ag4 S2'
_cell_volume   129.09184902
_cell_formula_units_Z   2
loop_
 _symmetry_equiv_pos_site_id
 _symmetry_equiv_pos_as_xyz
  1  'x, y, z'
loop_
 _atom_site_type_symbol
 _atom_site_label
 _atom_site_symmetry_multiplicity
 _atom_site_fract_x
 _atom_site_fract_y
 _atom_site_fract_z
 _atom_site_occupancy
  Ag  Ag1  1  0.459875  0.975829  0.739290  1.0
  Ag  Ag2  1  0.292455  0.601585  0.971102  1.0
  Ag  Ag3  1  0.625788  0.352339  0.506593  1.0
  Ag  Ag4  1  0.952655  0.483038  0.238191  1.0
  S  S5  1  0.003536  0.949194  0.492555  1.0
  S  S6  1  0.915690  0.013015  0.989771  1.0
