# generated using pymatgen
data_NbZnCo2
_symmetry_space_group_name_H-M   'P 1'
_cell_length_a   4.19736564
_cell_length_b   4.19736615
_cell_length_c   4.19736421
_cell_angle_alpha   60.00004291
_cell_angle_beta   60.00001527
_cell_angle_gamma   60.00001583
_symmetry_Int_Tables_number   1
_chemical_formula_structural   NbZnCo2
_chemical_formula_sum   'Nb1 Zn1 Co2'
_cell_volume   52.28962882
_cell_formula_units_Z   1
loop_
 _symmetry_equiv_pos_site_id
 _symmetry_equiv_pos_as_xyz
  1  'x, y, z'
loop_
 _atom_site_type_symbol
 _atom_site_label
 _atom_site_symmetry_multiplicity
 _atom_site_fract_x
 _atom_site_fract_y
 _atom_site_fract_z
 _atom_site_occupancy
  Nb  Nb1  1  0.250000  0.250000  0.250001  1.0
  Zn  Zn2  1  0.750000  0.750000  0.750000  1.0
  Co  Co3  1  0.500000  0.499999  0.499999  1.0
  Co  Co4  1  0.000000  0.000000  0.000000  1.0
