# generated using pymatgen
data_Hf2CuOs
_symmetry_space_group_name_H-M   'P 1'
_cell_length_a   4.60123024
_cell_length_b   4.60123082
_cell_length_c   4.60123086
_cell_angle_alpha   59.99998734
_cell_angle_beta   59.99999720
_cell_angle_gamma   59.99999776
_symmetry_Int_Tables_number   1
_chemical_formula_structural   Hf2CuOs
_chemical_formula_sum   'Hf2 Cu1 Os1'
_cell_volume   68.88219113
_cell_formula_units_Z   1
loop_
 _symmetry_equiv_pos_site_id
 _symmetry_equiv_pos_as_xyz
  1  'x, y, z'
loop_
 _atom_site_type_symbol
 _atom_site_label
 _atom_site_symmetry_multiplicity
 _atom_site_fract_x
 _atom_site_fract_y
 _atom_site_fract_z
 _atom_site_occupancy
  Hf  Hf1  1  0.000000  0.000000  0.000000  1.0
  Hf  Hf2  1  0.499999  0.499999  0.499999  1.0
  Cu  Cu3  1  0.250000  0.250000  0.250000  1.0
  Os  Os4  1  0.750000  0.750000  0.750000  1.0
