# generated using pymatgen
data_LiSc2Au
_symmetry_space_group_name_H-M   'P 1'
_cell_length_a   4.79648073
_cell_length_b   4.79645912
_cell_length_c   4.79642428
_cell_angle_alpha   59.97876929
_cell_angle_beta   59.98004468
_cell_angle_gamma   59.97989264
_symmetry_Int_Tables_number   1
_chemical_formula_structural   LiSc2Au
_chemical_formula_sum   'Li1 Sc2 Au1'
_cell_volume   77.99105547
_cell_formula_units_Z   1
loop_
 _symmetry_equiv_pos_site_id
 _symmetry_equiv_pos_as_xyz
  1  'x, y, z'
loop_
 _atom_site_type_symbol
 _atom_site_label
 _atom_site_symmetry_multiplicity
 _atom_site_fract_x
 _atom_site_fract_y
 _atom_site_fract_z
 _atom_site_occupancy
  Li  Li1  1  0.750000  0.750000  0.750000  1.0
  Sc  Sc2  1  0.999995  0.999995  0.999995  1.0
  Sc  Sc3  1  0.500005  0.500004  0.500004  1.0
  Au  Au4  1  0.249999  0.250001  0.250000  1.0
