# generated using pymatgen
data_ZrIN
_symmetry_space_group_name_H-M   'P 1'
_cell_length_a   11.05144364
_cell_length_b   11.05144385
_cell_length_c   11.05144396
_cell_angle_alpha   19.57957988
_cell_angle_beta   19.57957717
_cell_angle_gamma   19.57958123
_symmetry_Int_Tables_number   1
_chemical_formula_structural   ZrIN
_chemical_formula_sum   'Zr2 I2 N2'
_cell_volume   132.55079266
_cell_formula_units_Z   2
loop_
 _symmetry_equiv_pos_site_id
 _symmetry_equiv_pos_as_xyz
  1  'x, y, z'
loop_
 _atom_site_type_symbol
 _atom_site_label
 _atom_site_symmetry_multiplicity
 _atom_site_fract_x
 _atom_site_fract_y
 _atom_site_fract_z
 _atom_site_occupancy
  Zr  Zr1  1  0.793879  0.793879  0.793879  1.0
  Zr  Zr2  1  0.206121  0.206121  0.206121  1.0
  I  I3  1  0.392252  0.392252  0.392252  1.0
  I  I4  1  0.607748  0.607748  0.607748  1.0
  N  N5  1  0.139472  0.139472  0.139472  1.0
  N  N6  1  0.860528  0.860528  0.860528  1.0
