# generated using pymatgen
data_FeOF
_symmetry_space_group_name_H-M   'P 1'
_cell_length_a   4.79254245
_cell_length_b   9.58299290
_cell_length_c   3.07269222
_cell_angle_alpha   90.00000000
_cell_angle_beta   90.00000000
_cell_angle_gamma   91.36441291
_symmetry_Int_Tables_number   1
_chemical_formula_structural   FeOF
_chemical_formula_sum   'Fe4 O4 F4'
_cell_volume   141.07921791
_cell_formula_units_Z   4
loop_
 _symmetry_equiv_pos_site_id
 _symmetry_equiv_pos_as_xyz
  1  'x, y, z'
loop_
 _atom_site_type_symbol
 _atom_site_label
 _atom_site_symmetry_multiplicity
 _atom_site_fract_x
 _atom_site_fract_y
 _atom_site_fract_z
 _atom_site_occupancy
  Fe  Fe1  1  0.000000  0.000000  0.000000  1.0
  Fe  Fe2  1  0.000000  0.500000  0.000000  1.0
  Fe  Fe3  1  0.573074  0.247959  0.500000  1.0
  Fe  Fe4  1  0.426926  0.752041  0.500000  1.0
  O  O5  1  0.182059  0.904747  0.500000  1.0
  O  O6  1  0.287582  0.644953  0.000000  1.0
  O  O7  1  0.712418  0.355047  0.000000  1.0
  O  O8  1  0.817941  0.095253  0.500000  1.0
  F  F9  1  0.198487  0.402739  0.500000  1.0
  F  F10  1  0.323522  0.161593  0.000000  1.0
  F  F11  1  0.676478  0.838407  0.000000  1.0
  F  F12  1  0.801513  0.597261  0.500000  1.0
