# generated using pymatgen
data_PbAu3
_symmetry_space_group_name_H-M   'P 1'
_cell_length_a   4.92428471
_cell_length_b   4.92428573
_cell_length_c   4.92428458
_cell_angle_alpha   60.00002788
_cell_angle_beta   60.00002005
_cell_angle_gamma   60.00000242
_symmetry_Int_Tables_number   1
_chemical_formula_structural   PbAu3
_chemical_formula_sum   'Pb1 Au3'
_cell_volume   84.43348407
_cell_formula_units_Z   1
loop_
 _symmetry_equiv_pos_site_id
 _symmetry_equiv_pos_as_xyz
  1  'x, y, z'
loop_
 _atom_site_type_symbol
 _atom_site_label
 _atom_site_symmetry_multiplicity
 _atom_site_fract_x
 _atom_site_fract_y
 _atom_site_fract_z
 _atom_site_occupancy
  Pb  Pb1  1  0.750000  0.750000  0.750000  1.0
  Au  Au2  1  0.000000  0.000000  0.000000  1.0
  Au  Au3  1  0.500000  0.500000  0.500000  1.0
  Au  Au4  1  0.249999  0.249999  0.249999  1.0
