# generated using pymatgen
data_Li2Ca
_symmetry_space_group_name_H-M   'P 1'
_cell_length_a   6.17350096
_cell_length_b   6.17350095
_cell_length_c   6.17350096
_cell_angle_alpha   59.99999997
_cell_angle_beta   59.99999999
_cell_angle_gamma   59.99999997
_symmetry_Int_Tables_number   1
_chemical_formula_structural   Li2Ca
_chemical_formula_sum   'Li4 Ca2'
_cell_volume   166.37174099
_cell_formula_units_Z   2
loop_
 _symmetry_equiv_pos_site_id
 _symmetry_equiv_pos_as_xyz
  1  'x, y, z'
loop_
 _atom_site_type_symbol
 _atom_site_label
 _atom_site_symmetry_multiplicity
 _atom_site_fract_x
 _atom_site_fract_y
 _atom_site_fract_z
 _atom_site_occupancy
  Li  Li1  1  0.500000  0.000000  0.500000  1.0
  Li  Li2  1  0.000000  0.500000  0.500000  1.0
  Li  Li3  1  0.500000  0.500000  0.500000  1.0
  Li  Li4  1  0.500000  0.500000  0.000000  1.0
  Ca  Ca5  1  0.125000  0.125000  0.125000  1.0
  Ca  Ca6  1  0.875000  0.875000  0.875000  1.0
