# generated using pymatgen
data_BeVCo2
_symmetry_space_group_name_H-M   'P 1'
_cell_length_a   3.89213914
_cell_length_b   3.89213914
_cell_length_c   3.89213914
_cell_angle_alpha   59.96204834
_cell_angle_beta   59.96204834
_cell_angle_gamma   59.96204834
_symmetry_Int_Tables_number   1
_chemical_formula_structural   BeVCo2
_chemical_formula_sum   'Be1 V1 Co2'
_cell_volume   41.65586258
_cell_formula_units_Z   1
loop_
 _symmetry_equiv_pos_site_id
 _symmetry_equiv_pos_as_xyz
  1  'x, y, z'
loop_
 _atom_site_type_symbol
 _atom_site_label
 _atom_site_symmetry_multiplicity
 _atom_site_fract_x
 _atom_site_fract_y
 _atom_site_fract_z
 _atom_site_occupancy
  Be  Be1  1  0.250011  0.250011  0.250011  1.0
  V  V2  1  0.749989  0.749989  0.749989  1.0
  Co  Co3  1  0.500000  0.500000  0.500000  1.0
  Co  Co4  1  0.000001  0.000001  0.000001  1.0
