# generated using pymatgen
data_TcF6
_symmetry_space_group_name_H-M   'P 1'
_cell_length_a   5.50846725
_cell_length_b   5.50846725
_cell_length_c   5.50846725
_cell_angle_alpha   109.47122063
_cell_angle_beta   109.47122063
_cell_angle_gamma   109.47122063
_symmetry_Int_Tables_number   1
_chemical_formula_structural   TcF6
_chemical_formula_sum   'Tc1 F6'
_cell_volume   128.66796270
_cell_formula_units_Z   1
loop_
 _symmetry_equiv_pos_site_id
 _symmetry_equiv_pos_as_xyz
  1  'x, y, z'
loop_
 _atom_site_type_symbol
 _atom_site_label
 _atom_site_symmetry_multiplicity
 _atom_site_fract_x
 _atom_site_fract_y
 _atom_site_fract_z
 _atom_site_occupancy
  Tc  Tc1  1  0.000000  0.000000  0.000000  1.0
  F  F2  1  0.708066  0.708066  0.000000  1.0
  F  F3  1  0.291934  0.291934  0.000000  1.0
  F  F4  1  0.708066  0.000000  0.708066  1.0
  F  F5  1  0.291934  0.000000  0.291934  1.0
  F  F6  1  0.000000  0.708066  0.708066  1.0
  F  F7  1  0.000000  0.291934  0.291934  1.0
