# generated using pymatgen
data_Ta2FeMo
_symmetry_space_group_name_H-M   'P 1'
_cell_length_a   4.45751919
_cell_length_b   4.45751936
_cell_length_c   4.45751502
_cell_angle_alpha   59.99992989
_cell_angle_beta   59.99993567
_cell_angle_gamma   59.99998940
_symmetry_Int_Tables_number   1
_chemical_formula_structural   Ta2FeMo
_chemical_formula_sum   'Ta2 Fe1 Mo1'
_cell_volume   62.62731619
_cell_formula_units_Z   1
loop_
 _symmetry_equiv_pos_site_id
 _symmetry_equiv_pos_as_xyz
  1  'x, y, z'
loop_
 _atom_site_type_symbol
 _atom_site_label
 _atom_site_symmetry_multiplicity
 _atom_site_fract_x
 _atom_site_fract_y
 _atom_site_fract_z
 _atom_site_occupancy
  Ta  Ta1  1  0.999999  0.000001  0.000001  1.0
  Ta  Ta2  1  0.500000  0.500001  0.500001  1.0
  Fe  Fe3  1  0.250003  0.249998  0.250000  1.0
  Mo  Mo4  1  0.750000  0.750002  0.750000  1.0
