# generated using pymatgen
data_TbAu3
_symmetry_space_group_name_H-M   'P 1'
_cell_length_a   5.08666085
_cell_length_b   6.17847167
_cell_length_c   5.20778108
_cell_angle_alpha   90.00000000
_cell_angle_beta   90.00000000
_cell_angle_gamma   90.00000000
_symmetry_Int_Tables_number   1
_chemical_formula_structural   TbAu3
_chemical_formula_sum   'Tb2 Au6'
_cell_volume   163.66904992
_cell_formula_units_Z   2
loop_
 _symmetry_equiv_pos_site_id
 _symmetry_equiv_pos_as_xyz
  1  'x, y, z'
loop_
 _atom_site_type_symbol
 _atom_site_label
 _atom_site_symmetry_multiplicity
 _atom_site_fract_x
 _atom_site_fract_y
 _atom_site_fract_z
 _atom_site_occupancy
  Tb  Tb1  1  0.000000  0.000000  0.344867  1.0
  Tb  Tb2  1  0.500000  0.500000  0.655133  1.0
  Au  Au3  1  0.500000  0.000000  0.661500  1.0
  Au  Au4  1  0.000000  0.500000  0.338500  1.0
  Au  Au5  1  0.000000  0.745091  0.841379  1.0
  Au  Au6  1  0.000000  0.254909  0.841379  1.0
  Au  Au7  1  0.500000  0.754909  0.158621  1.0
  Au  Au8  1  0.500000  0.245091  0.158621  1.0
