# generated using pymatgen
data_BaSrSn
_symmetry_space_group_name_H-M   'P 1'
_cell_length_a   5.63108834
_cell_length_b   5.63108835
_cell_length_c   5.63108747
_cell_angle_alpha   59.99999937
_cell_angle_beta   59.99999930
_cell_angle_gamma   59.99999963
_symmetry_Int_Tables_number   1
_chemical_formula_structural   BaSrSn
_chemical_formula_sum   'Ba1 Sr1 Sn1'
_cell_volume   126.25888565
_cell_formula_units_Z   1
loop_
 _symmetry_equiv_pos_site_id
 _symmetry_equiv_pos_as_xyz
  1  'x, y, z'
loop_
 _atom_site_type_symbol
 _atom_site_label
 _atom_site_symmetry_multiplicity
 _atom_site_fract_x
 _atom_site_fract_y
 _atom_site_fract_z
 _atom_site_occupancy
  Ba  Ba1  1  0.000000  0.000000  0.000000  1.0
  Sr  Sr2  1  0.250000  0.250000  0.250000  1.0
  Sn  Sn3  1  0.500000  0.500000  0.500000  1.0
