# generated using pymatgen
data_FeSnRu2
_symmetry_space_group_name_H-M   'P 1'
_cell_length_a   4.36744749
_cell_length_b   4.36285837
_cell_length_c   4.36493132
_cell_angle_alpha   60.07758895
_cell_angle_beta   59.93735889
_cell_angle_gamma   60.00245900
_symmetry_Int_Tables_number   1
_chemical_formula_structural   FeSnRu2
_chemical_formula_sum   'Fe1 Sn1 Ru2'
_cell_volume   58.81892021
_cell_formula_units_Z   1
loop_
 _symmetry_equiv_pos_site_id
 _symmetry_equiv_pos_as_xyz
  1  'x, y, z'
loop_
 _atom_site_type_symbol
 _atom_site_label
 _atom_site_symmetry_multiplicity
 _atom_site_fract_x
 _atom_site_fract_y
 _atom_site_fract_z
 _atom_site_occupancy
  Fe  Fe1  1  0.000006  0.000015  0.999999  1.0
  Sn  Sn2  1  0.499994  0.500020  0.499978  1.0
  Ru  Ru3  1  0.750037  0.749943  0.750003  1.0
  Ru  Ru4  1  0.249964  0.250022  0.250020  1.0
