# generated using pymatgen
data_PrSi2Ag
_symmetry_space_group_name_H-M   'P 1'
_cell_length_a   4.24979054
_cell_length_b   4.28901841
_cell_length_c   9.07992871
_cell_angle_alpha   103.66126557
_cell_angle_beta   90.00000000
_cell_angle_gamma   90.00000000
_symmetry_Int_Tables_number   1
_chemical_formula_structural   PrSi2Ag
_chemical_formula_sum   'Pr2 Si4 Ag2'
_cell_volume   160.82149855
_cell_formula_units_Z   2
loop_
 _symmetry_equiv_pos_site_id
 _symmetry_equiv_pos_as_xyz
  1  'x, y, z'
loop_
 _atom_site_type_symbol
 _atom_site_label
 _atom_site_symmetry_multiplicity
 _atom_site_fract_x
 _atom_site_fract_y
 _atom_site_fract_z
 _atom_site_occupancy
  Pr  Pr1  1  0.250000  0.402988  0.805976  1.0
  Pr  Pr2  1  0.750000  0.597012  0.194024  1.0
  Si  Si3  1  0.250000  0.032533  0.065065  1.0
  Si  Si4  1  0.750000  0.967467  0.934935  1.0
  Si  Si5  1  0.250000  0.164684  0.329368  1.0
  Si  Si6  1  0.750000  0.835316  0.670632  1.0
  Ag  Ag7  1  0.250000  0.748354  0.496708  1.0
  Ag  Ag8  1  0.750000  0.251646  0.503292  1.0
