# generated using pymatgen
data_Cr2NiSe4
_symmetry_space_group_name_H-M   'P 1'
_cell_length_a   3.60701151
_cell_length_b   6.29379308
_cell_length_c   6.58649566
_cell_angle_alpha   116.33026175
_cell_angle_beta   105.89162940
_cell_angle_gamma   90.00000000
_symmetry_Int_Tables_number   1
_chemical_formula_structural   Cr2NiSe4
_chemical_formula_sum   'Cr2 Ni1 Se4'
_cell_volume   127.60480070
_cell_formula_units_Z   1
loop_
 _symmetry_equiv_pos_site_id
 _symmetry_equiv_pos_as_xyz
  1  'x, y, z'
loop_
 _atom_site_type_symbol
 _atom_site_label
 _atom_site_symmetry_multiplicity
 _atom_site_fract_x
 _atom_site_fract_y
 _atom_site_fract_z
 _atom_site_occupancy
  Cr  Cr1  1  0.259963  0.280978  0.519927  1.0
  Cr  Cr2  1  0.740037  0.719022  0.480073  1.0
  Ni  Ni3  1  0.000000  0.000000  0.000000  1.0
  Se  Se4  1  0.116372  0.448345  0.232743  1.0
  Se  Se5  1  0.883628  0.551655  0.767257  1.0
  Se  Se6  1  0.367870  0.025209  0.735740  1.0
  Se  Se7  1  0.632130  0.974791  0.264260  1.0
