# generated using pymatgen
data_Ti(MoS2)2
_symmetry_space_group_name_H-M   'P 1'
_cell_length_a   3.21143501
_cell_length_b   6.04752202
_cell_length_c   6.74861400
_cell_angle_alpha   112.64029068
_cell_angle_beta   103.76457234
_cell_angle_gamma   90.00000000
_symmetry_Int_Tables_number   1
_chemical_formula_structural   Ti(MoS2)2
_chemical_formula_sum   'Ti1 Mo2 S4'
_cell_volume   116.87750379
_cell_formula_units_Z   1
loop_
 _symmetry_equiv_pos_site_id
 _symmetry_equiv_pos_as_xyz
  1  'x, y, z'
loop_
 _atom_site_type_symbol
 _atom_site_label
 _atom_site_symmetry_multiplicity
 _atom_site_fract_x
 _atom_site_fract_y
 _atom_site_fract_z
 _atom_site_occupancy
  Ti  Ti1  1  0.000000  0.000000  0.000000  1.0
  Mo  Mo2  1  0.259007  0.314948  0.518014  1.0
  Mo  Mo3  1  0.740993  0.685052  0.481986  1.0
  S  S4  1  0.109221  0.443301  0.218442  1.0
  S  S5  1  0.890779  0.556699  0.781558  1.0
  S  S6  1  0.361294  0.025784  0.722587  1.0
  S  S7  1  0.638706  0.974216  0.277413  1.0
