# generated using pymatgen
data_HoTaOs2
_symmetry_space_group_name_H-M   'P 1'
_cell_length_a   4.63600067
_cell_length_b   4.63598424
_cell_length_c   4.63599527
_cell_angle_alpha   60.00001786
_cell_angle_beta   60.00014112
_cell_angle_gamma   60.00000106
_symmetry_Int_Tables_number   1
_chemical_formula_structural   HoTaOs2
_chemical_formula_sum   'Ho1 Ta1 Os2'
_cell_volume   70.45534609
_cell_formula_units_Z   1
loop_
 _symmetry_equiv_pos_site_id
 _symmetry_equiv_pos_as_xyz
  1  'x, y, z'
loop_
 _atom_site_type_symbol
 _atom_site_label
 _atom_site_symmetry_multiplicity
 _atom_site_fract_x
 _atom_site_fract_y
 _atom_site_fract_z
 _atom_site_occupancy
  Ho  Ho1  1  0.250002  0.250001  0.250000  1.0
  Ta  Ta2  1  0.749999  0.750002  0.750001  1.0
  Os  Os3  1  0.000000  0.999999  0.000000  1.0
  Os  Os4  1  0.500001  0.500000  0.500000  1.0
