# generated using pymatgen
data_Tm2Cr2C3
_symmetry_space_group_name_H-M   'P 1'
_cell_length_a   3.31028906
_cell_length_b   5.50981308
_cell_length_c   5.47564915
_cell_angle_alpha   105.66448471
_cell_angle_beta   107.59421593
_cell_angle_gamma   90.00000000
_symmetry_Int_Tables_number   1
_chemical_formula_structural   Tm2Cr2C3
_chemical_formula_sum   'Tm2 Cr2 C3'
_cell_volume   91.30005607
_cell_formula_units_Z   1
loop_
 _symmetry_equiv_pos_site_id
 _symmetry_equiv_pos_as_xyz
  1  'x, y, z'
loop_
 _atom_site_type_symbol
 _atom_site_label
 _atom_site_symmetry_multiplicity
 _atom_site_fract_x
 _atom_site_fract_y
 _atom_site_fract_z
 _atom_site_occupancy
  Tm  Tm1  1  0.608382  0.316453  0.216763  1.0
  Tm  Tm2  1  0.391618  0.683547  0.783237  1.0
  Cr  Cr3  1  0.845024  0.113362  0.690049  1.0
  Cr  Cr4  1  0.154976  0.886638  0.309951  1.0
  C  C5  1  0.280797  0.235444  0.561594  1.0
  C  C6  1  0.719203  0.764556  0.438406  1.0
  C  C7  1  0.000000  0.000000  0.000000  1.0
