# generated using pymatgen
data_V2ReRu
_symmetry_space_group_name_H-M   'P 1'
_cell_length_a   4.27960344
_cell_length_b   4.27960344
_cell_length_c   4.27960344
_cell_angle_alpha   60.00000000
_cell_angle_beta   60.00000000
_cell_angle_gamma   60.00000000
_symmetry_Int_Tables_number   1
_chemical_formula_structural   V2ReRu
_chemical_formula_sum   'V2 Re1 Ru1'
_cell_volume   55.42370903
_cell_formula_units_Z   1
loop_
 _symmetry_equiv_pos_site_id
 _symmetry_equiv_pos_as_xyz
  1  'x, y, z'
loop_
 _atom_site_type_symbol
 _atom_site_label
 _atom_site_symmetry_multiplicity
 _atom_site_fract_x
 _atom_site_fract_y
 _atom_site_fract_z
 _atom_site_occupancy
  V  V1  1  0.000000  0.000000  0.000000  1.0
  V  V2  1  0.499998  0.499998  0.499998  1.0
  Re  Re3  1  0.250001  0.250001  0.250001  1.0
  Ru  Ru4  1  0.750001  0.750001  0.750001  1.0
