# generated using pymatgen
data_La2Ce2O7
_symmetry_space_group_name_H-M   'P 1'
_cell_length_a   7.93897089
_cell_length_b   7.93897089
_cell_length_c   7.93897089
_cell_angle_alpha   60.00000000
_cell_angle_beta   60.00000000
_cell_angle_gamma   60.00000000
_symmetry_Int_Tables_number   1
_chemical_formula_structural   La2Ce2O7
_chemical_formula_sum   'La4 Ce4 O14'
_cell_volume   353.81613226
_cell_formula_units_Z   2
loop_
 _symmetry_equiv_pos_site_id
 _symmetry_equiv_pos_as_xyz
  1  'x, y, z'
loop_
 _atom_site_type_symbol
 _atom_site_label
 _atom_site_symmetry_multiplicity
 _atom_site_fract_x
 _atom_site_fract_y
 _atom_site_fract_z
 _atom_site_occupancy
  La  La1  1  0.625000  0.125000  0.125000  1.0
  La  La2  1  0.125000  0.125000  0.125000  1.0
  La  La3  1  0.125000  0.625000  0.125000  1.0
  La  La4  1  0.125000  0.125000  0.625000  1.0
  Ce  Ce5  1  0.625000  0.125000  0.625000  1.0
  Ce  Ce6  1  0.625000  0.625000  0.125000  1.0
  Ce  Ce7  1  0.625000  0.625000  0.625000  1.0
  Ce  Ce8  1  0.125000  0.625000  0.625000  1.0
  O  O9  1  0.000000  0.000000  0.000000  1.0
  O  O10  1  0.250000  0.250000  0.250000  1.0
  O  O11  1  0.719400  0.280600  0.280600  1.0
  O  O12  1  0.280600  0.719400  0.280600  1.0
  O  O13  1  0.719400  0.719400  0.280600  1.0
  O  O14  1  0.719400  0.280600  0.719400  1.0
  O  O15  1  0.280600  0.280600  0.719400  1.0
  O  O16  1  0.969400  0.530600  0.530600  1.0
  O  O17  1  0.280600  0.719400  0.719400  1.0
  O  O18  1  0.530600  0.969400  0.530600  1.0
  O  O19  1  0.969400  0.530600  0.969400  1.0
  O  O20  1  0.530600  0.530600  0.969400  1.0
  O  O21  1  0.969400  0.969400  0.530600  1.0
  O  O22  1  0.530600  0.969400  0.969400  1.0
