# generated using pymatgen
data_Li2MgTl
_symmetry_space_group_name_H-M   'P 1'
_cell_length_a   4.79501851
_cell_length_b   4.79501850
_cell_length_c   4.79501850
_cell_angle_alpha   59.99999999
_cell_angle_beta   60.00000004
_cell_angle_gamma   60.00000002
_symmetry_Int_Tables_number   1
_chemical_formula_structural   Li2MgTl
_chemical_formula_sum   'Li2 Mg1 Tl1'
_cell_volume   77.95713402
_cell_formula_units_Z   1
loop_
 _symmetry_equiv_pos_site_id
 _symmetry_equiv_pos_as_xyz
  1  'x, y, z'
loop_
 _atom_site_type_symbol
 _atom_site_label
 _atom_site_symmetry_multiplicity
 _atom_site_fract_x
 _atom_site_fract_y
 _atom_site_fract_z
 _atom_site_occupancy
  Li  Li1  1  0.250000  0.250000  0.250000  1.0
  Li  Li2  1  0.750000  0.750000  0.750000  1.0
  Mg  Mg3  1  0.000000  0.000000  0.000000  1.0
  Tl  Tl4  1  0.500000  0.500000  0.500000  1.0
