# generated using pymatgen
data_Mn(CrSe2)2
_symmetry_space_group_name_H-M   'P 1'
_cell_length_a   3.72371731
_cell_length_b   6.45370718
_cell_length_c   7.05640869
_cell_angle_alpha   116.95569156
_cell_angle_beta   105.29884310
_cell_angle_gamma   90.00000000
_symmetry_Int_Tables_number   1
_chemical_formula_structural   Mn(CrSe2)2
_chemical_formula_sum   'Mn1 Cr2 Se4'
_cell_volume   144.38048522
_cell_formula_units_Z   1
loop_
 _symmetry_equiv_pos_site_id
 _symmetry_equiv_pos_as_xyz
  1  'x, y, z'
loop_
 _atom_site_type_symbol
 _atom_site_label
 _atom_site_symmetry_multiplicity
 _atom_site_fract_x
 _atom_site_fract_y
 _atom_site_fract_z
 _atom_site_occupancy
  Mn  Mn1  1  0.000000  0.000000  0.000000  1.0
  Cr  Cr2  1  0.259159  0.273610  0.518318  1.0
  Cr  Cr3  1  0.740841  0.726390  0.481682  1.0
  Se  Se4  1  0.128355  0.456996  0.256711  1.0
  Se  Se5  1  0.871645  0.543004  0.743289  1.0
  Se  Se6  1  0.362822  0.022300  0.725644  1.0
  Se  Se7  1  0.637178  0.977700  0.274356  1.0
