# generated using pymatgen
data_LiLuPd2
_symmetry_space_group_name_H-M   'P 1'
_cell_length_a   4.63193466
_cell_length_b   4.63193415
_cell_length_c   4.63194747
_cell_angle_alpha   60.00010176
_cell_angle_beta   59.99972342
_cell_angle_gamma   60.00009948
_symmetry_Int_Tables_number   1
_chemical_formula_structural   LiLuPd2
_chemical_formula_sum   'Li1 Lu1 Pd2'
_cell_volume   70.27052228
_cell_formula_units_Z   1
loop_
 _symmetry_equiv_pos_site_id
 _symmetry_equiv_pos_as_xyz
  1  'x, y, z'
loop_
 _atom_site_type_symbol
 _atom_site_label
 _atom_site_symmetry_multiplicity
 _atom_site_fract_x
 _atom_site_fract_y
 _atom_site_fract_z
 _atom_site_occupancy
  Li  Li1  1  0.250000  0.250000  0.250000  1.0
  Lu  Lu2  1  0.750001  0.750000  0.750002  1.0
  Pd  Pd3  1  0.000002  0.000001  0.999997  1.0
  Pd  Pd4  1  0.499998  0.499999  0.500001  1.0
