# generated using pymatgen
data_V2FeSe4
_symmetry_space_group_name_H-M   'P 1'
_cell_length_a   3.35575336
_cell_length_b   6.18588405
_cell_length_c   6.81853925
_cell_angle_alpha   115.54867692
_cell_angle_beta   104.24541195
_cell_angle_gamma   90.00000000
_symmetry_Int_Tables_number   1
_chemical_formula_structural   V2FeSe4
_chemical_formula_sum   'V2 Fe1 Se4'
_cell_volume   122.85965582
_cell_formula_units_Z   1
loop_
 _symmetry_equiv_pos_site_id
 _symmetry_equiv_pos_as_xyz
  1  'x, y, z'
loop_
 _atom_site_type_symbol
 _atom_site_label
 _atom_site_symmetry_multiplicity
 _atom_site_fract_x
 _atom_site_fract_y
 _atom_site_fract_z
 _atom_site_occupancy
  V  V1  1  0.254997  0.315397  0.509994  1.0
  V  V2  1  0.745003  0.684603  0.490006  1.0
  Fe  Fe3  1  0.000000  0.000000  0.000000  1.0
  Se  Se4  1  0.104985  0.443182  0.209969  1.0
  Se  Se5  1  0.895015  0.556818  0.790031  1.0
  Se  Se6  1  0.360409  0.025038  0.720819  1.0
  Se  Se7  1  0.639591  0.974962  0.279181  1.0
