# generated using pymatgen
data_Cs2CaCl4
_symmetry_space_group_name_H-M   'P 1'
_cell_length_a   5.43517407
_cell_length_b   5.43517407
_cell_length_c   9.55990678
_cell_angle_alpha   106.51517004
_cell_angle_beta   106.51517004
_cell_angle_gamma   90.00000000
_symmetry_Int_Tables_number   1
_chemical_formula_structural   Cs2CaCl4
_chemical_formula_sum   'Cs2 Ca1 Cl4'
_cell_volume   258.58394517
_cell_formula_units_Z   1
loop_
 _symmetry_equiv_pos_site_id
 _symmetry_equiv_pos_as_xyz
  1  'x, y, z'
loop_
 _atom_site_type_symbol
 _atom_site_label
 _atom_site_symmetry_multiplicity
 _atom_site_fract_x
 _atom_site_fract_y
 _atom_site_fract_z
 _atom_site_occupancy
  Cs  Cs1  1  0.355752  0.355752  0.711504  1.0
  Cs  Cs2  1  0.644248  0.644248  0.288496  1.0
  Ca  Ca3  1  0.000000  0.000000  0.000000  1.0
  Cl  Cl4  1  0.156457  0.156457  0.312915  1.0
  Cl  Cl5  1  0.843543  0.843543  0.687085  1.0
  Cl  Cl6  1  0.000000  0.500000  0.000000  1.0
  Cl  Cl7  1  0.500000  0.000000  0.000000  1.0
