# generated using pymatgen
data_PaSiTc2
_symmetry_space_group_name_H-M   'P 1'
_cell_length_a   4.57751249
_cell_length_b   4.57751249
_cell_length_c   4.57751249
_cell_angle_alpha   59.97434717
_cell_angle_beta   59.97434717
_cell_angle_gamma   59.97434717
_symmetry_Int_Tables_number   1
_chemical_formula_structural   PaSiTc2
_chemical_formula_sum   'Pa1 Si1 Tc2'
_cell_volume   67.78301934
_cell_formula_units_Z   1
loop_
 _symmetry_equiv_pos_site_id
 _symmetry_equiv_pos_as_xyz
  1  'x, y, z'
loop_
 _atom_site_type_symbol
 _atom_site_label
 _atom_site_symmetry_multiplicity
 _atom_site_fract_x
 _atom_site_fract_y
 _atom_site_fract_z
 _atom_site_occupancy
  Pa  Pa1  1  0.250003  0.250003  0.250003  1.0
  Si  Si2  1  0.749997  0.749997  0.749997  1.0
  Tc  Tc3  1  0.500003  0.500003  0.500003  1.0
  Tc  Tc4  1  0.999997  0.999997  0.999997  1.0
