# generated using pymatgen
data_Li2FeF4
_symmetry_space_group_name_H-M   'P 1'
_cell_length_a   5.36333576
_cell_length_b   5.36333576
_cell_length_c   5.83904299
_cell_angle_alpha   90.00000000
_cell_angle_beta   90.00000000
_cell_angle_gamma   114.04364954
_symmetry_Int_Tables_number   1
_chemical_formula_structural   Li2FeF4
_chemical_formula_sum   'Li4 Fe2 F8'
_cell_volume   153.38904680
_cell_formula_units_Z   2
loop_
 _symmetry_equiv_pos_site_id
 _symmetry_equiv_pos_as_xyz
  1  'x, y, z'
loop_
 _atom_site_type_symbol
 _atom_site_label
 _atom_site_symmetry_multiplicity
 _atom_site_fract_x
 _atom_site_fract_y
 _atom_site_fract_z
 _atom_site_occupancy
  Li  Li1  1  0.496749  0.996749  0.250000  1.0
  Li  Li2  1  0.003251  0.503251  0.750000  1.0
  Li  Li3  1  0.503251  0.003251  0.750000  1.0
  Li  Li4  1  0.996749  0.496749  0.250000  1.0
  Fe  Fe5  1  0.500000  0.500000  0.500000  1.0
  Fe  Fe6  1  0.000000  0.000000  0.000000  1.0
  F  F7  1  0.235744  0.764256  0.000000  1.0
  F  F8  1  0.264256  0.735744  0.500000  1.0
  F  F9  1  0.755131  0.755131  0.244014  1.0
  F  F10  1  0.255131  0.255131  0.255986  1.0
  F  F11  1  0.244869  0.244869  0.755986  1.0
  F  F12  1  0.744869  0.744869  0.744014  1.0
  F  F13  1  0.735744  0.264256  0.500000  1.0
  F  F14  1  0.764256  0.235744  0.000000  1.0
