# generated using pymatgen
data_BaTlHg2
_symmetry_space_group_name_H-M   'P 1'
_cell_length_a   5.64591013
_cell_length_b   5.64591070
_cell_length_c   5.64591171
_cell_angle_alpha   59.99998032
_cell_angle_beta   59.99992878
_cell_angle_gamma   59.99992601
_symmetry_Int_Tables_number   1
_chemical_formula_structural   BaTlHg2
_chemical_formula_sum   'Ba1 Tl1 Hg2'
_cell_volume   127.25841477
_cell_formula_units_Z   1
loop_
 _symmetry_equiv_pos_site_id
 _symmetry_equiv_pos_as_xyz
  1  'x, y, z'
loop_
 _atom_site_type_symbol
 _atom_site_label
 _atom_site_symmetry_multiplicity
 _atom_site_fract_x
 _atom_site_fract_y
 _atom_site_fract_z
 _atom_site_occupancy
  Ba  Ba1  1  0.250001  0.250001  0.250001  1.0
  Tl  Tl2  1  0.750000  0.750000  0.750000  1.0
  Hg  Hg3  1  0.000000  0.000000  0.000000  1.0
  Hg  Hg4  1  0.500000  0.500000  0.500000  1.0
