# generated using pymatgen
data_Co2NiSe4
_symmetry_space_group_name_H-M   'P 1'
_cell_length_a   3.59590058
_cell_length_b   6.15993452
_cell_length_c   6.25668121
_cell_angle_alpha   117.96444473
_cell_angle_beta   106.70025934
_cell_angle_gamma   90.00000000
_symmetry_Int_Tables_number   1
_chemical_formula_structural   Co2NiSe4
_chemical_formula_sum   'Co2 Ni1 Se4'
_cell_volume   115.74704457
_cell_formula_units_Z   1
loop_
 _symmetry_equiv_pos_site_id
 _symmetry_equiv_pos_as_xyz
  1  'x, y, z'
loop_
 _atom_site_type_symbol
 _atom_site_label
 _atom_site_symmetry_multiplicity
 _atom_site_fract_x
 _atom_site_fract_y
 _atom_site_fract_z
 _atom_site_occupancy
  Co  Co1  1  0.260953  0.279860  0.521907  1.0
  Co  Co2  1  0.739047  0.720140  0.478093  1.0
  Ni  Ni3  1  0.000000  0.000000  0.000000  1.0
  Se  Se4  1  0.124635  0.459960  0.249270  1.0
  Se  Se5  1  0.875365  0.540040  0.750730  1.0
  Se  Se6  1  0.362209  0.020738  0.724418  1.0
  Se  Se7  1  0.637791  0.979262  0.275582  1.0
