# generated using pymatgen
data_Ti2VSe4
_symmetry_space_group_name_H-M   'P 1'
_cell_length_a   3.53664908
_cell_length_b   6.42000589
_cell_length_c   7.01147299
_cell_angle_alpha   116.10551892
_cell_angle_beta   104.60799736
_cell_angle_gamma   90.00000000
_symmetry_Int_Tables_number   1
_chemical_formula_structural   Ti2VSe4
_chemical_formula_sum   'Ti2 V1 Se4'
_cell_volume   137.20310416
_cell_formula_units_Z   1
loop_
 _symmetry_equiv_pos_site_id
 _symmetry_equiv_pos_as_xyz
  1  'x, y, z'
loop_
 _atom_site_type_symbol
 _atom_site_label
 _atom_site_symmetry_multiplicity
 _atom_site_fract_x
 _atom_site_fract_y
 _atom_site_fract_z
 _atom_site_occupancy
  Ti  Ti1  1  0.254031  0.293645  0.508061  1.0
  Ti  Ti2  1  0.745969  0.706355  0.491939  1.0
  V  V3  1  0.000000  0.000000  0.000000  1.0
  Se  Se4  1  0.110493  0.444503  0.220987  1.0
  Se  Se5  1  0.889507  0.555497  0.779013  1.0
  Se  Se6  1  0.367334  0.030795  0.734669  1.0
  Se  Se7  1  0.632666  0.969205  0.265331  1.0
