# generated using pymatgen
data_Sc2TcAu
_symmetry_space_group_name_H-M   'P 1'
_cell_length_a   4.67912686
_cell_length_b   4.67915913
_cell_length_c   4.67910628
_cell_angle_alpha   59.99979734
_cell_angle_beta   60.00020046
_cell_angle_gamma   59.99973865
_symmetry_Int_Tables_number   1
_chemical_formula_structural   Sc2TcAu
_chemical_formula_sum   'Sc2 Tc1 Au1'
_cell_volume   72.44020686
_cell_formula_units_Z   1
loop_
 _symmetry_equiv_pos_site_id
 _symmetry_equiv_pos_as_xyz
  1  'x, y, z'
loop_
 _atom_site_type_symbol
 _atom_site_label
 _atom_site_symmetry_multiplicity
 _atom_site_fract_x
 _atom_site_fract_y
 _atom_site_fract_z
 _atom_site_occupancy
  Sc  Sc1  1  0.000000  0.000000  0.000000  1.0
  Sc  Sc2  1  0.500000  0.500001  0.500000  1.0
  Tc  Tc3  1  0.750000  0.750000  0.750001  1.0
  Au  Au4  1  0.250001  0.250001  0.250001  1.0
