# generated using pymatgen
data_Ti2CoTc
_symmetry_space_group_name_H-M   'P 1'
_cell_length_a   4.29122969
_cell_length_b   4.29123016
_cell_length_c   4.29123024
_cell_angle_alpha   60.00000049
_cell_angle_beta   59.99998872
_cell_angle_gamma   59.99999095
_symmetry_Int_Tables_number   1
_chemical_formula_structural   Ti2CoTc
_chemical_formula_sum   'Ti2 Co1 Tc1'
_cell_volume   55.87664516
_cell_formula_units_Z   1
loop_
 _symmetry_equiv_pos_site_id
 _symmetry_equiv_pos_as_xyz
  1  'x, y, z'
loop_
 _atom_site_type_symbol
 _atom_site_label
 _atom_site_symmetry_multiplicity
 _atom_site_fract_x
 _atom_site_fract_y
 _atom_site_fract_z
 _atom_site_occupancy
  Ti  Ti1  1  0.000000  0.000000  0.000000  1.0
  Ti  Ti2  1  0.500000  0.500000  0.500000  1.0
  Co  Co3  1  0.250000  0.250000  0.250000  1.0
  Tc  Tc4  1  0.750001  0.750001  0.750001  1.0
