# generated using pymatgen
data_TiFe2Ge
_symmetry_space_group_name_H-M   'P 1'
_cell_length_a   4.09420250
_cell_length_b   4.09411091
_cell_length_c   4.09414886
_cell_angle_alpha   59.99355815
_cell_angle_beta   59.99143014
_cell_angle_gamma   59.99212195
_symmetry_Int_Tables_number   1
_chemical_formula_structural   TiFe2Ge
_chemical_formula_sum   'Ti1 Fe2 Ge1'
_cell_volume   48.51794696
_cell_formula_units_Z   1
loop_
 _symmetry_equiv_pos_site_id
 _symmetry_equiv_pos_as_xyz
  1  'x, y, z'
loop_
 _atom_site_type_symbol
 _atom_site_label
 _atom_site_symmetry_multiplicity
 _atom_site_fract_x
 _atom_site_fract_y
 _atom_site_fract_z
 _atom_site_occupancy
  Ti  Ti1  1  0.749997  0.750000  0.749996  1.0
  Fe  Fe2  1  0.999990  0.999995  0.999985  1.0
  Fe  Fe3  1  0.500013  0.500008  0.500015  1.0
  Ge  Ge4  1  0.250000  0.249997  0.250004  1.0
