# generated using pymatgen
data_Sm2Fe2Si2C
_symmetry_space_group_name_H-M   'P 1'
_cell_length_a   3.97762190
_cell_length_b   5.71307129
_cell_length_c   5.78884926
_cell_angle_alpha   73.55510022
_cell_angle_beta   69.90614674
_cell_angle_gamma   69.62788167
_symmetry_Int_Tables_number   1
_chemical_formula_structural   Sm2Fe2Si2C
_chemical_formula_sum   'Sm2 Fe2 Si2 C1'
_cell_volume   113.79926088
_cell_formula_units_Z   1
loop_
 _symmetry_equiv_pos_site_id
 _symmetry_equiv_pos_as_xyz
  1  'x, y, z'
loop_
 _atom_site_type_symbol
 _atom_site_label
 _atom_site_symmetry_multiplicity
 _atom_site_fract_x
 _atom_site_fract_y
 _atom_site_fract_z
 _atom_site_occupancy
  Sm  Sm1  1  0.440462  0.821699  0.297378  1.0
  Sm  Sm2  1  0.559538  0.178301  0.702622  1.0
  Fe  Fe3  1  0.801901  0.305087  0.091111  1.0
  Fe  Fe4  1  0.198099  0.694913  0.908889  1.0
  Si  Si5  1  0.830368  0.609539  0.729725  1.0
  Si  Si6  1  0.169632  0.390461  0.270275  1.0
  C  C7  1  0.000000  0.000000  0.000000  1.0
