# generated using pymatgen
data_HoCdCu4
_symmetry_space_group_name_H-M   'P 1'
_cell_length_a   5.08957771
_cell_length_b   5.08957771
_cell_length_c   5.08957771
_cell_angle_alpha   59.99999996
_cell_angle_beta   59.99999994
_cell_angle_gamma   59.99999998
_symmetry_Int_Tables_number   1
_chemical_formula_structural   HoCdCu4
_chemical_formula_sum   'Ho1 Cd1 Cu4'
_cell_volume   93.22454042
_cell_formula_units_Z   1
loop_
 _symmetry_equiv_pos_site_id
 _symmetry_equiv_pos_as_xyz
  1  'x, y, z'
loop_
 _atom_site_type_symbol
 _atom_site_label
 _atom_site_symmetry_multiplicity
 _atom_site_fract_x
 _atom_site_fract_y
 _atom_site_fract_z
 _atom_site_occupancy
  Ho  Ho1  1  0.750000  0.750000  0.750000  1.0
  Cd  Cd2  1  0.000000  0.000000  0.000000  1.0
  Cu  Cu3  1  0.374322  0.877033  0.374322  1.0
  Cu  Cu4  1  0.877033  0.374322  0.374322  1.0
  Cu  Cu5  1  0.374322  0.374322  0.374322  1.0
  Cu  Cu6  1  0.374322  0.374322  0.877033  1.0
