# generated using pymatgen
data_Tb2Cr2C3
_symmetry_space_group_name_H-M   'P 1'
_cell_length_a   3.39595210
_cell_length_b   5.47227883
_cell_length_c   5.60986811
_cell_angle_alpha   104.92536746
_cell_angle_beta   90.00000000
_cell_angle_gamma   108.07651704
_symmetry_Int_Tables_number   1
_chemical_formula_structural   Tb2Cr2C3
_chemical_formula_sum   'Tb2 Cr2 C3'
_cell_volume   95.39923923
_cell_formula_units_Z   1
loop_
 _symmetry_equiv_pos_site_id
 _symmetry_equiv_pos_as_xyz
  1  'x, y, z'
loop_
 _atom_site_type_symbol
 _atom_site_label
 _atom_site_symmetry_multiplicity
 _atom_site_fract_x
 _atom_site_fract_y
 _atom_site_fract_z
 _atom_site_occupancy
  Tb  Tb1  1  0.395346  0.790692  0.682857  1.0
  Tb  Tb2  1  0.604654  0.209308  0.317143  1.0
  Cr  Cr3  1  0.157414  0.314827  0.892509  1.0
  Cr  Cr4  1  0.842586  0.685173  0.107491  1.0
  C  C5  1  0.712581  0.425162  0.771551  1.0
  C  C6  1  0.287419  0.574838  0.228449  1.0
  C  C7  1  0.000000  0.000000  0.000000  1.0
