# generated using pymatgen
data_HoCu5
_symmetry_space_group_name_H-M   'P 1'
_cell_length_a   4.95861949
_cell_length_b   4.95861910
_cell_length_c   4.95861911
_cell_angle_alpha   59.99999320
_cell_angle_beta   59.99999577
_cell_angle_gamma   59.99999457
_symmetry_Int_Tables_number   1
_chemical_formula_structural   HoCu5
_chemical_formula_sum   'Ho1 Cu5'
_cell_volume   86.21190267
_cell_formula_units_Z   1
loop_
 _symmetry_equiv_pos_site_id
 _symmetry_equiv_pos_as_xyz
  1  'x, y, z'
loop_
 _atom_site_type_symbol
 _atom_site_label
 _atom_site_symmetry_multiplicity
 _atom_site_fract_x
 _atom_site_fract_y
 _atom_site_fract_z
 _atom_site_occupancy
  Ho  Ho1  1  0.000000  0.000000  0.000000  1.0
  Cu  Cu2  1  0.623846  0.623846  0.128462  1.0
  Cu  Cu3  1  0.128462  0.623846  0.623846  1.0
  Cu  Cu4  1  0.250000  0.250000  0.250000  1.0
  Cu  Cu5  1  0.623846  0.128462  0.623846  1.0
  Cu  Cu6  1  0.623846  0.623846  0.623846  1.0
