# generated using pymatgen
data_Cs2CaBr4
_symmetry_space_group_name_H-M   'P 1'
_cell_length_a   5.74481524
_cell_length_b   5.74481524
_cell_length_c   9.97037111
_cell_angle_alpha   106.74390209
_cell_angle_beta   106.74390209
_cell_angle_gamma   90.00000000
_symmetry_Int_Tables_number   1
_chemical_formula_structural   Cs2CaBr4
_chemical_formula_sum   'Cs2 Ca1 Br4'
_cell_volume   300.50197896
_cell_formula_units_Z   1
loop_
 _symmetry_equiv_pos_site_id
 _symmetry_equiv_pos_as_xyz
  1  'x, y, z'
loop_
 _atom_site_type_symbol
 _atom_site_label
 _atom_site_symmetry_multiplicity
 _atom_site_fract_x
 _atom_site_fract_y
 _atom_site_fract_z
 _atom_site_occupancy
  Cs  Cs1  1  0.357214  0.357214  0.714428  1.0
  Cs  Cs2  1  0.642786  0.642786  0.285572  1.0
  Ca  Ca3  1  0.000000  0.000000  0.000000  1.0
  Br  Br4  1  0.159500  0.159500  0.319000  1.0
  Br  Br5  1  0.840500  0.840500  0.681000  1.0
  Br  Br6  1  0.000000  0.500000  0.000000  1.0
  Br  Br7  1  0.500000  0.000000  0.000000  1.0
