# generated using pymatgen
data_Ga
_symmetry_space_group_name_H-M   'P 1'
_cell_length_a   2.75358798
_cell_length_b   3.10261796
_cell_length_c   4.65698178
_cell_angle_alpha   90.00000000
_cell_angle_beta   107.19596880
_cell_angle_gamma   90.00000000
_symmetry_Int_Tables_number   1
_chemical_formula_structural   Ga
_chemical_formula_sum   Ga2
_cell_volume   38.00766559
_cell_formula_units_Z   2
loop_
 _symmetry_equiv_pos_site_id
 _symmetry_equiv_pos_as_xyz
  1  'x, y, z'
loop_
 _atom_site_type_symbol
 _atom_site_label
 _atom_site_symmetry_multiplicity
 _atom_site_fract_x
 _atom_site_fract_y
 _atom_site_fract_z
 _atom_site_occupancy
  Ga  Ga1  1  0.868285  0.250000  0.736571  1.0
  Ga  Ga2  1  0.131715  0.750000  0.263429  1.0
