# generated using pymatgen
data_MnAlRu2
_symmetry_space_group_name_H-M   'P 1'
_cell_length_a   4.23274855
_cell_length_b   4.23275038
_cell_length_c   4.23274941
_cell_angle_alpha   60.00003874
_cell_angle_beta   60.00003636
_cell_angle_gamma   60.00000160
_symmetry_Int_Tables_number   1
_chemical_formula_structural   MnAlRu2
_chemical_formula_sum   'Mn1 Al1 Ru2'
_cell_volume   53.62322612
_cell_formula_units_Z   1
loop_
 _symmetry_equiv_pos_site_id
 _symmetry_equiv_pos_as_xyz
  1  'x, y, z'
loop_
 _atom_site_type_symbol
 _atom_site_label
 _atom_site_symmetry_multiplicity
 _atom_site_fract_x
 _atom_site_fract_y
 _atom_site_fract_z
 _atom_site_occupancy
  Mn  Mn1  1  0.749997  0.750000  0.750004  1.0
  Al  Al2  1  0.250001  0.249999  0.249998  1.0
  Ru  Ru3  1  0.000001  0.999999  0.999999  1.0
  Ru  Ru4  1  0.500000  0.500002  0.499999  1.0
