# generated using pymatgen
data_CaYMg6
_symmetry_space_group_name_H-M   'P 1'
_cell_length_a   6.68688279
_cell_length_b   6.68688225
_cell_length_c   5.22650035
_cell_angle_alpha   90.00000000
_cell_angle_beta   90.00000000
_cell_angle_gamma   117.36910884
_symmetry_Int_Tables_number   1
_chemical_formula_structural   CaYMg6
_chemical_formula_sum   'Ca1 Y1 Mg6'
_cell_volume   207.54024703
_cell_formula_units_Z   1
loop_
 _symmetry_equiv_pos_site_id
 _symmetry_equiv_pos_as_xyz
  1  'x, y, z'
loop_
 _atom_site_type_symbol
 _atom_site_label
 _atom_site_symmetry_multiplicity
 _atom_site_fract_x
 _atom_site_fract_y
 _atom_site_fract_z
 _atom_site_occupancy
  Ca  Ca1  1  0.095828  0.404172  0.250000  1.0
  Y  Y2  1  0.405950  0.094050  0.750000  1.0
  Mg  Mg3  1  0.074327  0.896775  0.250000  1.0
  Mg  Mg4  1  0.603225  0.425673  0.250000  1.0
  Mg  Mg5  1  0.584833  0.915167  0.250000  1.0
  Mg  Mg6  1  0.432408  0.606292  0.750000  1.0
  Mg  Mg7  1  0.893708  0.067592  0.750000  1.0
  Mg  Mg8  1  0.909721  0.590279  0.750000  1.0
