# generated using pymatgen
data_GaFe3
_symmetry_space_group_name_H-M   'P 1'
_cell_length_a   4.08941428
_cell_length_b   4.08956890
_cell_length_c   4.08907275
_cell_angle_alpha   59.99553075
_cell_angle_beta   60.00800595
_cell_angle_gamma   59.99448154
_symmetry_Int_Tables_number   1
_chemical_formula_structural   GaFe3
_chemical_formula_sum   'Ga1 Fe3'
_cell_volume   48.35506357
_cell_formula_units_Z   1
loop_
 _symmetry_equiv_pos_site_id
 _symmetry_equiv_pos_as_xyz
  1  'x, y, z'
loop_
 _atom_site_type_symbol
 _atom_site_label
 _atom_site_symmetry_multiplicity
 _atom_site_fract_x
 _atom_site_fract_y
 _atom_site_fract_z
 _atom_site_occupancy
  Ga  Ga1  1  0.000001  0.999965  0.000031  1.0
  Fe  Fe2  1  0.499970  0.500025  0.500007  1.0
  Fe  Fe3  1  0.750049  0.750056  0.749996  1.0
  Fe  Fe4  1  0.249980  0.249955  0.249965  1.0
