# generated using pymatgen
data_TiZnCo2
_symmetry_space_group_name_H-M   'P 1'
_cell_length_a   4.11454336
_cell_length_b   4.11454336
_cell_length_c   4.11454336
_cell_angle_alpha   59.97928379
_cell_angle_beta   59.97928379
_cell_angle_gamma   59.97928379
_symmetry_Int_Tables_number   1
_chemical_formula_structural   TiZnCo2
_chemical_formula_sum   'Ti1 Zn1 Co2'
_cell_volume   49.23181816
_cell_formula_units_Z   1
loop_
 _symmetry_equiv_pos_site_id
 _symmetry_equiv_pos_as_xyz
  1  'x, y, z'
loop_
 _atom_site_type_symbol
 _atom_site_label
 _atom_site_symmetry_multiplicity
 _atom_site_fract_x
 _atom_site_fract_y
 _atom_site_fract_z
 _atom_site_occupancy
  Ti  Ti1  1  0.249999  0.249999  0.249999  1.0
  Zn  Zn2  1  0.749998  0.749998  0.749998  1.0
  Co  Co3  1  0.499960  0.499960  0.499960  1.0
  Co  Co4  1  0.000043  0.000043  0.000043  1.0
