# generated using pymatgen
data_LiZn
_symmetry_space_group_name_H-M   'P 1'
_cell_length_a   4.36608607
_cell_length_b   4.36608607
_cell_length_c   4.36608607
_cell_angle_alpha   60.00000006
_cell_angle_beta   60.00000005
_cell_angle_gamma   60.00000009
_symmetry_Int_Tables_number   1
_chemical_formula_structural   LiZn
_chemical_formula_sum   'Li2 Zn2'
_cell_volume   58.85208877
_cell_formula_units_Z   2
loop_
 _symmetry_equiv_pos_site_id
 _symmetry_equiv_pos_as_xyz
  1  'x, y, z'
loop_
 _atom_site_type_symbol
 _atom_site_label
 _atom_site_symmetry_multiplicity
 _atom_site_fract_x
 _atom_site_fract_y
 _atom_site_fract_z
 _atom_site_occupancy
  Li  Li1  1  0.875000  0.875000  0.875000  1.0
  Li  Li2  1  0.125000  0.125000  0.125000  1.0
  Zn  Zn3  1  0.375000  0.375000  0.375000  1.0
  Zn  Zn4  1  0.625000  0.625000  0.625000  1.0
