# generated using pymatgen
data_TmLuIn2
_symmetry_space_group_name_H-M   'P 1'
_cell_length_a   5.25407375
_cell_length_b   5.25404875
_cell_length_c   5.25403517
_cell_angle_alpha   59.99949279
_cell_angle_beta   59.99967630
_cell_angle_gamma   59.99974374
_symmetry_Int_Tables_number   1
_chemical_formula_structural   TmLuIn2
_chemical_formula_sum   'Tm1 Lu1 In2'
_cell_volume   102.55684975
_cell_formula_units_Z   1
loop_
 _symmetry_equiv_pos_site_id
 _symmetry_equiv_pos_as_xyz
  1  'x, y, z'
loop_
 _atom_site_type_symbol
 _atom_site_label
 _atom_site_symmetry_multiplicity
 _atom_site_fract_x
 _atom_site_fract_y
 _atom_site_fract_z
 _atom_site_occupancy
  Tm  Tm1  1  0.749999  0.750000  0.749998  1.0
  Lu  Lu2  1  0.249999  0.249998  0.249999  1.0
  In  In3  1  0.000001  0.000000  0.000001  1.0
  In  In4  1  0.500001  0.500002  0.500001  1.0
