# generated using pymatgen
data_CrO
_symmetry_space_group_name_H-M   'P 1'
_cell_length_a   3.15044863
_cell_length_b   5.44231776
_cell_length_c   3.15044900
_cell_angle_alpha   106.82444435
_cell_angle_beta   60.00002144
_cell_angle_gamma   106.82443284
_symmetry_Int_Tables_number   1
_chemical_formula_structural   CrO
_chemical_formula_sum   'Cr2 O2'
_cell_volume   44.08990021
_cell_formula_units_Z   2
loop_
 _symmetry_equiv_pos_site_id
 _symmetry_equiv_pos_as_xyz
  1  'x, y, z'
loop_
 _atom_site_type_symbol
 _atom_site_label
 _atom_site_symmetry_multiplicity
 _atom_site_fract_x
 _atom_site_fract_y
 _atom_site_fract_z
 _atom_site_occupancy
  Cr  Cr1  1  0.000000  0.000000  0.000000  1.0
  Cr  Cr2  1  0.500000  0.500000  0.500000  1.0
  O  O3  1  0.750126  0.250378  0.750126  1.0
  O  O4  1  0.249874  0.749622  0.249874  1.0
