# generated using pymatgen
data_Na2CO5
_symmetry_space_group_name_H-M   'P 1'
_cell_length_a   5.30925793
_cell_length_b   5.30925841
_cell_length_c   6.13626197
_cell_angle_alpha   74.31811040
_cell_angle_beta   74.31810957
_cell_angle_gamma   58.77137935
_symmetry_Int_Tables_number   1
_chemical_formula_structural   Na2CO5
_chemical_formula_sum   'Na2 C1 O5'
_cell_volume   140.61132973
_cell_formula_units_Z   1
loop_
 _symmetry_equiv_pos_site_id
 _symmetry_equiv_pos_as_xyz
  1  'x, y, z'
loop_
 _atom_site_type_symbol
 _atom_site_label
 _atom_site_symmetry_multiplicity
 _atom_site_fract_x
 _atom_site_fract_y
 _atom_site_fract_z
 _atom_site_occupancy
  Na  Na1  1  0.954161  0.954161  0.005288  1.0
  Na  Na2  1  0.029301  0.029301  0.526749  1.0
  C  C3  1  0.660341  0.660341  0.768862  1.0
  O  O4  1  0.246411  0.491609  0.296909  1.0
  O  O5  1  0.491609  0.246411  0.296909  1.0
  O  O6  1  0.381976  0.809941  0.750470  1.0
  O  O7  1  0.809941  0.381976  0.750470  1.0
  O  O8  1  0.792261  0.792261  0.798344  1.0
