# generated using pymatgen
data_AcInAu2
_symmetry_space_group_name_H-M   'P 1'
_cell_length_a   5.27072245
_cell_length_b   5.27073054
_cell_length_c   5.27073120
_cell_angle_alpha   60.00009133
_cell_angle_beta   60.00017445
_cell_angle_gamma   60.00001291
_symmetry_Int_Tables_number   1
_chemical_formula_structural   AcInAu2
_chemical_formula_sum   'Ac1 In1 Au2'
_cell_volume   103.53751722
_cell_formula_units_Z   1
loop_
 _symmetry_equiv_pos_site_id
 _symmetry_equiv_pos_as_xyz
  1  'x, y, z'
loop_
 _atom_site_type_symbol
 _atom_site_label
 _atom_site_symmetry_multiplicity
 _atom_site_fract_x
 _atom_site_fract_y
 _atom_site_fract_z
 _atom_site_occupancy
  Ac  Ac1  1  0.249999  0.249999  0.249999  1.0
  In  In2  1  0.749999  0.749999  0.749999  1.0
  Au  Au3  1  0.500001  0.500001  0.500001  1.0
  Au  Au4  1  0.000000  0.000000  0.000000  1.0
