# generated using pymatgen
data_Cr2FeSe4
_symmetry_space_group_name_H-M   'P 1'
_cell_length_a   3.69286903
_cell_length_b   6.38772943
_cell_length_c   6.77657555
_cell_angle_alpha   118.33989888
_cell_angle_beta   105.81148362
_cell_angle_gamma   90.00000003
_symmetry_Int_Tables_number   1
_chemical_formula_structural   Cr2FeSe4
_chemical_formula_sum   'Cr2 Fe1 Se4'
_cell_volume   133.78243279
_cell_formula_units_Z   1
loop_
 _symmetry_equiv_pos_site_id
 _symmetry_equiv_pos_as_xyz
  1  'x, y, z'
loop_
 _atom_site_type_symbol
 _atom_site_label
 _atom_site_symmetry_multiplicity
 _atom_site_fract_x
 _atom_site_fract_y
 _atom_site_fract_z
 _atom_site_occupancy
  Cr  Cr1  1  0.744334  0.728010  0.488669  1.0
  Cr  Cr2  1  0.255666  0.271990  0.511331  1.0
  Fe  Fe3  1  0.000000  0.000000  0.000000  1.0
  Se  Se4  1  0.369705  0.034635  0.739411  1.0
  Se  Se5  1  0.630295  0.965365  0.260589  1.0
  Se  Se6  1  0.877970  0.547292  0.755941  1.0
  Se  Se7  1  0.122030  0.452708  0.244059  1.0
