# generated using pymatgen
data_SmInAu2
_symmetry_space_group_name_H-M   'P 1'
_cell_length_a   5.02318006
_cell_length_b   5.02317979
_cell_length_c   5.02318039
_cell_angle_alpha   59.99999610
_cell_angle_beta   59.99999791
_cell_angle_gamma   59.99999270
_symmetry_Int_Tables_number   1
_chemical_formula_structural   SmInAu2
_chemical_formula_sum   'Sm1 In1 Au2'
_cell_volume   89.62335593
_cell_formula_units_Z   1
loop_
 _symmetry_equiv_pos_site_id
 _symmetry_equiv_pos_as_xyz
  1  'x, y, z'
loop_
 _atom_site_type_symbol
 _atom_site_label
 _atom_site_symmetry_multiplicity
 _atom_site_fract_x
 _atom_site_fract_y
 _atom_site_fract_z
 _atom_site_occupancy
  Sm  Sm1  1  0.500000  0.500000  0.500000  1.0
  In  In2  1  0.000000  0.000000  0.000000  1.0
  Au  Au3  1  0.250000  0.250000  0.250000  1.0
  Au  Au4  1  0.750000  0.750000  0.750000  1.0
