# generated using pymatgen
data_LiAl2Tc
_symmetry_space_group_name_H-M   'P 1'
_cell_length_a   4.30673450
_cell_length_b   4.30673450
_cell_length_c   4.30673450
_cell_angle_alpha   60.00000000
_cell_angle_beta   60.00000000
_cell_angle_gamma   60.00000000
_symmetry_Int_Tables_number   1
_chemical_formula_structural   LiAl2Tc
_chemical_formula_sum   'Li1 Al2 Tc1'
_cell_volume   56.48450150
_cell_formula_units_Z   1
loop_
 _symmetry_equiv_pos_site_id
 _symmetry_equiv_pos_as_xyz
  1  'x, y, z'
loop_
 _atom_site_type_symbol
 _atom_site_label
 _atom_site_symmetry_multiplicity
 _atom_site_fract_x
 _atom_site_fract_y
 _atom_site_fract_z
 _atom_site_occupancy
  Li  Li1  1  0.249999  0.249999  0.249999  1.0
  Al  Al2  1  0.500001  0.500001  0.500001  1.0
  Al  Al3  1  0.000000  0.000000  0.000000  1.0
  Tc  Tc4  1  0.749999  0.749999  0.749999  1.0
