# generated using pymatgen
data_NdNiGe2
_symmetry_space_group_name_H-M   'P 1'
_cell_length_a   4.25259548
_cell_length_b   4.23523638
_cell_length_c   8.65783192
_cell_angle_alpha   104.15759905
_cell_angle_beta   90.00000000
_cell_angle_gamma   90.00000000
_symmetry_Int_Tables_number   1
_chemical_formula_structural   NdNiGe2
_chemical_formula_sum   'Nd2 Ni2 Ge4'
_cell_volume   151.19777787
_cell_formula_units_Z   2
loop_
 _symmetry_equiv_pos_site_id
 _symmetry_equiv_pos_as_xyz
  1  'x, y, z'
loop_
 _atom_site_type_symbol
 _atom_site_label
 _atom_site_symmetry_multiplicity
 _atom_site_fract_x
 _atom_site_fract_y
 _atom_site_fract_z
 _atom_site_occupancy
  Nd  Nd1  1  0.250000  0.891388  0.782776  1.0
  Nd  Nd2  1  0.750000  0.108612  0.217224  1.0
  Ni  Ni3  1  0.250000  0.681144  0.362287  1.0
  Ni  Ni4  1  0.750000  0.318856  0.637713  1.0
  Ge  Ge5  1  0.250000  0.250779  0.501557  1.0
  Ge  Ge6  1  0.250000  0.542105  0.084209  1.0
  Ge  Ge7  1  0.750000  0.749221  0.498443  1.0
  Ge  Ge8  1  0.750000  0.457895  0.915791  1.0
