# generated using pymatgen
data_YbHfIr2
_symmetry_space_group_name_H-M   'P 1'
_cell_length_a   4.66636418
_cell_length_b   4.66636415
_cell_length_c   4.66636426
_cell_angle_alpha   60.00000361
_cell_angle_beta   59.99999559
_cell_angle_gamma   60.00000000
_symmetry_Int_Tables_number   1
_chemical_formula_structural   YbHfIr2
_chemical_formula_sum   'Yb1 Hf1 Ir2'
_cell_volume   71.84902735
_cell_formula_units_Z   1
loop_
 _symmetry_equiv_pos_site_id
 _symmetry_equiv_pos_as_xyz
  1  'x, y, z'
loop_
 _atom_site_type_symbol
 _atom_site_label
 _atom_site_symmetry_multiplicity
 _atom_site_fract_x
 _atom_site_fract_y
 _atom_site_fract_z
 _atom_site_occupancy
  Yb  Yb1  1  0.750000  0.750000  0.750000  1.0
  Hf  Hf2  1  0.250000  0.250000  0.250000  1.0
  Ir  Ir3  1  0.000000  0.000000  0.000000  1.0
  Ir  Ir4  1  0.500001  0.500001  0.500001  1.0
