# generated using pymatgen
data_YErZn2
_symmetry_space_group_name_H-M   'P 1'
_cell_length_a   5.03928660
_cell_length_b   5.03928660
_cell_length_c   5.03928660
_cell_angle_alpha   60.05150682
_cell_angle_beta   60.05150682
_cell_angle_gamma   60.05150682
_symmetry_Int_Tables_number   1
_chemical_formula_structural   YErZn2
_chemical_formula_sum   'Y1 Er1 Zn2'
_cell_volume   90.59388449
_cell_formula_units_Z   1
loop_
 _symmetry_equiv_pos_site_id
 _symmetry_equiv_pos_as_xyz
  1  'x, y, z'
loop_
 _atom_site_type_symbol
 _atom_site_label
 _atom_site_symmetry_multiplicity
 _atom_site_fract_x
 _atom_site_fract_y
 _atom_site_fract_z
 _atom_site_occupancy
  Y  Y1  1  0.749999  0.749999  0.749999  1.0
  Er  Er2  1  0.250000  0.250000  0.250000  1.0
  Zn  Zn3  1  0.999953  0.999953  0.999953  1.0
  Zn  Zn4  1  0.500048  0.500048  0.500048  1.0
