# generated using pymatgen
data_In2Si2O7
_symmetry_space_group_name_H-M   'P 1'
_cell_length_a   4.76372238
_cell_length_b   5.51872179
_cell_length_c   5.51872178
_cell_angle_alpha   104.98615277
_cell_angle_beta   97.80320134
_cell_angle_gamma   97.80320135
_symmetry_Int_Tables_number   1
_chemical_formula_structural   In2Si2O7
_chemical_formula_sum   'In2 Si2 O7'
_cell_volume   136.62173057
_cell_formula_units_Z   1
loop_
 _symmetry_equiv_pos_site_id
 _symmetry_equiv_pos_as_xyz
  1  'x, y, z'
loop_
 _atom_site_type_symbol
 _atom_site_label
 _atom_site_symmetry_multiplicity
 _atom_site_fract_x
 _atom_site_fract_y
 _atom_site_fract_z
 _atom_site_occupancy
  In  In1  1  0.000000  0.308302  0.691698  1.0
  In  In2  1  0.000000  0.691698  0.308302  1.0
  Si  Si3  1  0.409189  0.219193  0.219193  1.0
  Si  Si4  1  0.590811  0.780807  0.780807  1.0
  O  O5  1  0.781796  0.921446  0.610711  1.0
  O  O6  1  0.218204  0.389289  0.078554  1.0
  O  O7  1  0.218204  0.078554  0.389289  1.0
  O  O8  1  0.781796  0.610711  0.921446  1.0
  O  O9  1  0.500000  0.000000  0.000000  1.0
  O  O10  1  0.284131  0.610344  0.610344  1.0
  O  O11  1  0.715869  0.389656  0.389656  1.0
