# generated using pymatgen
data_NiHg4
_symmetry_space_group_name_H-M   'P 1'
_cell_length_a   5.35523829
_cell_length_b   5.35523852
_cell_length_c   5.35523877
_cell_angle_alpha   109.47122568
_cell_angle_beta   109.47122653
_cell_angle_gamma   109.47121963
_symmetry_Int_Tables_number   1
_chemical_formula_structural   NiHg4
_chemical_formula_sum   'Ni1 Hg4'
_cell_volume   118.22641328
_cell_formula_units_Z   1
loop_
 _symmetry_equiv_pos_site_id
 _symmetry_equiv_pos_as_xyz
  1  'x, y, z'
loop_
 _atom_site_type_symbol
 _atom_site_label
 _atom_site_symmetry_multiplicity
 _atom_site_fract_x
 _atom_site_fract_y
 _atom_site_fract_z
 _atom_site_occupancy
  Ni  Ni1  1  0.000000  0.000000  0.000000  1.0
  Hg  Hg2  1  0.500000  0.000000  0.000000  1.0
  Hg  Hg3  1  0.000000  0.500000  0.000000  1.0
  Hg  Hg4  1  0.500000  0.500000  0.500000  1.0
  Hg  Hg5  1  0.000000  0.000000  0.500000  1.0
