# generated using pymatgen
data_Li2LaIn
_symmetry_space_group_name_H-M   'P 1'
_cell_length_a   5.04861756
_cell_length_b   5.04862345
_cell_length_c   5.04864960
_cell_angle_alpha   59.99996951
_cell_angle_beta   59.99967929
_cell_angle_gamma   60.00010693
_symmetry_Int_Tables_number   1
_chemical_formula_structural   Li2LaIn
_chemical_formula_sum   'Li2 La1 In1'
_cell_volume   90.99235050
_cell_formula_units_Z   1
loop_
 _symmetry_equiv_pos_site_id
 _symmetry_equiv_pos_as_xyz
  1  'x, y, z'
loop_
 _atom_site_type_symbol
 _atom_site_label
 _atom_site_symmetry_multiplicity
 _atom_site_fract_x
 _atom_site_fract_y
 _atom_site_fract_z
 _atom_site_occupancy
  Li  Li1  1  0.000000  0.000003  0.000000  1.0
  Li  Li2  1  0.500001  0.500004  0.500001  1.0
  La  La3  1  0.750001  0.749992  0.749999  1.0
  In  In4  1  0.250000  0.250002  0.250002  1.0
