# generated using pymatgen
data_SrSnO3
_symmetry_space_group_name_H-M   'P 1'
_cell_length_a   5.81747161
_cell_length_b   5.78637814
_cell_length_c   8.19065565
_cell_angle_alpha   90.00000000
_cell_angle_beta   90.00000000
_cell_angle_gamma   90.00000000
_symmetry_Int_Tables_number   1
_chemical_formula_structural   SrSnO3
_chemical_formula_sum   'Sr4 Sn4 O12'
_cell_volume   275.71459219
_cell_formula_units_Z   4
loop_
 _symmetry_equiv_pos_site_id
 _symmetry_equiv_pos_as_xyz
  1  'x, y, z'
loop_
 _atom_site_type_symbol
 _atom_site_label
 _atom_site_symmetry_multiplicity
 _atom_site_fract_x
 _atom_site_fract_y
 _atom_site_fract_z
 _atom_site_occupancy
  Sr  Sr1  1  0.467542  0.492948  0.750000  1.0
  Sr  Sr2  1  0.967542  0.007052  0.750000  1.0
  Sr  Sr3  1  0.032458  0.992948  0.250000  1.0
  Sr  Sr4  1  0.532458  0.507052  0.250000  1.0
  Sn  Sn5  1  0.500000  0.000000  0.000000  1.0
  Sn  Sn6  1  0.000000  0.500000  0.500000  1.0
  Sn  Sn7  1  0.000000  0.500000  0.000000  1.0
  Sn  Sn8  1  0.500000  0.000000  0.500000  1.0
  O  O9  1  0.714216  0.286626  0.539009  1.0
  O  O10  1  0.214216  0.213374  0.960991  1.0
  O  O11  1  0.785784  0.786626  0.460991  1.0
  O  O12  1  0.285784  0.713374  0.039009  1.0
  O  O13  1  0.285784  0.713374  0.460991  1.0
  O  O14  1  0.785784  0.786626  0.039009  1.0
  O  O15  1  0.214216  0.213374  0.539009  1.0
  O  O16  1  0.714216  0.286626  0.960991  1.0
  O  O17  1  0.518462  0.926167  0.750000  1.0
  O  O18  1  0.018462  0.573833  0.750000  1.0
  O  O19  1  0.981538  0.426167  0.250000  1.0
  O  O20  1  0.481538  0.073833  0.250000  1.0
