# generated using pymatgen
data_Mo2N
_symmetry_space_group_name_H-M   'P 1'
_cell_length_a   4.26271800
_cell_length_b   4.26271800
_cell_length_c   5.04359469
_cell_angle_alpha   114.99804177
_cell_angle_beta   114.99804177
_cell_angle_gamma   90.00000011
_symmetry_Int_Tables_number   1
_chemical_formula_structural   Mo2N
_chemical_formula_sum   'Mo4 N2'
_cell_volume   73.47926793
_cell_formula_units_Z   2
loop_
 _symmetry_equiv_pos_site_id
 _symmetry_equiv_pos_as_xyz
  1  'x, y, z'
loop_
 _atom_site_type_symbol
 _atom_site_label
 _atom_site_symmetry_multiplicity
 _atom_site_fract_x
 _atom_site_fract_y
 _atom_site_fract_z
 _atom_site_occupancy
  Mo  Mo1  1  0.364801  0.114801  0.729602  1.0
  Mo  Mo2  1  0.114801  0.364801  0.229602  1.0
  Mo  Mo3  1  0.885199  0.635199  0.770398  1.0
  Mo  Mo4  1  0.635199  0.885199  0.270398  1.0
  N  N5  1  0.625000  0.375000  0.250000  1.0
  N  N6  1  0.375000  0.625000  0.750000  1.0
