# generated using pymatgen
data_Y2ZnRu
_symmetry_space_group_name_H-M   'P 1'
_cell_length_a   4.93530786
_cell_length_b   4.93530281
_cell_length_c   4.93529883
_cell_angle_alpha   60.00008564
_cell_angle_beta   59.99997407
_cell_angle_gamma   59.99997782
_symmetry_Int_Tables_number   1
_chemical_formula_structural   Y2ZnRu
_chemical_formula_sum   'Y2 Zn1 Ru1'
_cell_volume   85.00150840
_cell_formula_units_Z   1
loop_
 _symmetry_equiv_pos_site_id
 _symmetry_equiv_pos_as_xyz
  1  'x, y, z'
loop_
 _atom_site_type_symbol
 _atom_site_label
 _atom_site_symmetry_multiplicity
 _atom_site_fract_x
 _atom_site_fract_y
 _atom_site_fract_z
 _atom_site_occupancy
  Y  Y1  1  0.000000  0.000000  0.000000  1.0
  Y  Y2  1  0.499999  0.499999  0.499999  1.0
  Zn  Zn3  1  0.750000  0.750000  0.750000  1.0
  Ru  Ru4  1  0.250000  0.250000  0.250000  1.0
