# generated using pymatgen
data_Ag2SO4
_symmetry_space_group_name_H-M   'P 1'
_cell_length_a   5.70016564
_cell_length_b   6.38816646
_cell_length_c   6.86440339
_cell_angle_alpha   79.32484570
_cell_angle_beta   65.46824813
_cell_angle_gamma   63.50303740
_symmetry_Int_Tables_number   1
_chemical_formula_structural   Ag2SO4
_chemical_formula_sum   'Ag4 S2 O8'
_cell_volume   203.50838367
_cell_formula_units_Z   2
loop_
 _symmetry_equiv_pos_site_id
 _symmetry_equiv_pos_as_xyz
  1  'x, y, z'
loop_
 _atom_site_type_symbol
 _atom_site_label
 _atom_site_symmetry_multiplicity
 _atom_site_fract_x
 _atom_site_fract_y
 _atom_site_fract_z
 _atom_site_occupancy
  Ag  Ag1  1  0.175229  0.649541  0.250000  1.0
  Ag  Ag2  1  0.574771  0.850459  0.250000  1.0
  Ag  Ag3  1  0.824771  0.350459  0.750000  1.0
  Ag  Ag4  1  0.425229  0.149541  0.750000  1.0
  S  S5  1  0.875000  0.250000  0.250000  1.0
  S  S6  1  0.125000  0.750000  0.750000  1.0
  O  O7  1  0.170902  0.095875  0.111586  1.0
  O  O8  1  0.878364  0.404125  0.388414  1.0
  O  O9  1  0.733222  0.095875  0.388414  1.0
  O  O10  1  0.717511  0.404125  0.111586  1.0
  O  O11  1  0.829098  0.904125  0.888414  1.0
  O  O12  1  0.121636  0.595875  0.611586  1.0
  O  O13  1  0.282489  0.595875  0.888414  1.0
  O  O14  1  0.266778  0.904125  0.611586  1.0
