# generated using pymatgen
data_LiCa2Ir
_symmetry_space_group_name_H-M   'P 1'
_cell_length_a   5.00502733
_cell_length_b   5.00502374
_cell_length_c   5.00502705
_cell_angle_alpha   60.00003514
_cell_angle_beta   60.00006319
_cell_angle_gamma   59.99995756
_symmetry_Int_Tables_number   1
_chemical_formula_structural   LiCa2Ir
_chemical_formula_sum   'Li1 Ca2 Ir1'
_cell_volume   88.65519914
_cell_formula_units_Z   1
loop_
 _symmetry_equiv_pos_site_id
 _symmetry_equiv_pos_as_xyz
  1  'x, y, z'
loop_
 _atom_site_type_symbol
 _atom_site_label
 _atom_site_symmetry_multiplicity
 _atom_site_fract_x
 _atom_site_fract_y
 _atom_site_fract_z
 _atom_site_occupancy
  Li  Li1  1  0.749999  0.749999  0.749999  1.0
  Ca  Ca2  1  0.499999  0.500000  0.499999  1.0
  Ca  Ca3  1  0.000000  0.999999  0.000000  1.0
  Ir  Ir4  1  0.250000  0.250000  0.250000  1.0
