# generated using pymatgen
data_TmNbOs2
_symmetry_space_group_name_H-M   'P 1'
_cell_length_a   4.61415479
_cell_length_b   4.61415479
_cell_length_c   4.61415479
_cell_angle_alpha   60.23456517
_cell_angle_beta   60.23456517
_cell_angle_gamma   60.23456517
_symmetry_Int_Tables_number   1
_chemical_formula_structural   TmNbOs2
_chemical_formula_sum   'Tm1 Nb1 Os2'
_cell_volume   69.83314401
_cell_formula_units_Z   1
loop_
 _symmetry_equiv_pos_site_id
 _symmetry_equiv_pos_as_xyz
  1  'x, y, z'
loop_
 _atom_site_type_symbol
 _atom_site_label
 _atom_site_symmetry_multiplicity
 _atom_site_fract_x
 _atom_site_fract_y
 _atom_site_fract_z
 _atom_site_occupancy
  Tm  Tm1  1  0.749999  0.749999  0.749999  1.0
  Nb  Nb2  1  0.250002  0.250002  0.250002  1.0
  Os  Os3  1  0.000160  0.000160  0.000160  1.0
  Os  Os4  1  0.499838  0.499838  0.499838  1.0
