# generated using pymatgen
data_LiVRh2
_symmetry_space_group_name_H-M   'P 1'
_cell_length_a   4.19156026
_cell_length_b   4.19156366
_cell_length_c   4.19156784
_cell_angle_alpha   59.99985000
_cell_angle_beta   59.99989810
_cell_angle_gamma   59.99991953
_symmetry_Int_Tables_number   1
_chemical_formula_structural   LiVRh2
_chemical_formula_sum   'Li1 V1 Rh2'
_cell_volume   52.07295117
_cell_formula_units_Z   1
loop_
 _symmetry_equiv_pos_site_id
 _symmetry_equiv_pos_as_xyz
  1  'x, y, z'
loop_
 _atom_site_type_symbol
 _atom_site_label
 _atom_site_symmetry_multiplicity
 _atom_site_fract_x
 _atom_site_fract_y
 _atom_site_fract_z
 _atom_site_occupancy
  Li  Li1  1  0.250000  0.250000  0.250000  1.0
  V  V2  1  0.750000  0.750000  0.750000  1.0
  Rh  Rh3  1  0.000001  0.000002  0.999999  1.0
  Rh  Rh4  1  0.500000  0.500000  0.500001  1.0
