# generated using pymatgen
data_Dy
_symmetry_space_group_name_H-M   'P 1'
_cell_length_a   3.53744012
_cell_length_b   6.14369279
_cell_length_c   6.14369278
_cell_angle_alpha   109.47444605
_cell_angle_beta   90.00000000
_cell_angle_gamma   90.00000000
_symmetry_Int_Tables_number   1
_chemical_formula_structural   Dy
_chemical_formula_sum   Dy4
_cell_volume   125.88186620
_cell_formula_units_Z   4
loop_
 _symmetry_equiv_pos_site_id
 _symmetry_equiv_pos_as_xyz
  1  'x, y, z'
loop_
 _atom_site_type_symbol
 _atom_site_label
 _atom_site_symmetry_multiplicity
 _atom_site_fract_x
 _atom_site_fract_y
 _atom_site_fract_z
 _atom_site_occupancy
  Dy  Dy1  1  0.000000  0.250021  0.749979  1.0
  Dy  Dy2  1  0.000000  0.749979  0.250021  1.0
  Dy  Dy3  1  0.500000  0.250011  0.250011  1.0
  Dy  Dy4  1  0.500000  0.749989  0.749989  1.0
