# generated using pymatgen
data_Hg2Pt2O7
_symmetry_space_group_name_H-M   'P 1'
_cell_length_a   7.32639188
_cell_length_b   7.32639188
_cell_length_c   7.32639188
_cell_angle_alpha   60.00000000
_cell_angle_beta   90.00000000
_cell_angle_gamma   120.00000000
_symmetry_Int_Tables_number   1
_chemical_formula_structural   Hg2Pt2O7
_chemical_formula_sum   'Hg4 Pt4 O14'
_cell_volume   278.07083225
_cell_formula_units_Z   2
loop_
 _symmetry_equiv_pos_site_id
 _symmetry_equiv_pos_as_xyz
  1  'x, y, z'
loop_
 _atom_site_type_symbol
 _atom_site_label
 _atom_site_symmetry_multiplicity
 _atom_site_fract_x
 _atom_site_fract_y
 _atom_site_fract_z
 _atom_site_occupancy
  Hg  Hg1  1  0.125000  0.250000  0.125000  1.0
  Hg  Hg2  1  0.625000  0.750000  0.125000  1.0
  Hg  Hg3  1  0.125000  0.750000  0.125000  1.0
  Hg  Hg4  1  0.125000  0.250000  0.625000  1.0
  Pt  Pt5  1  0.625000  0.250000  0.125000  1.0
  Pt  Pt6  1  0.625000  0.250000  0.625000  1.0
  Pt  Pt7  1  0.625000  0.750000  0.625000  1.0
  Pt  Pt8  1  0.125000  0.750000  0.625000  1.0
  O  O9  1  0.703249  0.000000  0.296751  1.0
  O  O10  1  0.703249  0.000000  0.703249  1.0
  O  O11  1  0.000000  0.000000  0.000000  1.0
  O  O12  1  0.296751  0.000000  0.296751  1.0
  O  O13  1  0.703249  0.406499  0.296751  1.0
  O  O14  1  0.953249  0.500000  0.546751  1.0
  O  O15  1  0.296751  0.000000  0.703249  1.0
  O  O16  1  0.250000  0.500000  0.250000  1.0
  O  O17  1  0.953249  0.500000  0.953249  1.0
  O  O18  1  0.546751  0.500000  0.546751  1.0
  O  O19  1  0.546751  0.093501  0.953249  1.0
  O  O20  1  0.953249  0.906499  0.546751  1.0
  O  O21  1  0.546751  0.500000  0.953249  1.0
  O  O22  1  0.296751  0.593501  0.703249  1.0
