# generated using pymatgen
data_CrSiTe3
_symmetry_space_group_name_H-M   'P 1'
_cell_length_a   8.56467898
_cell_length_b   8.56467898
_cell_length_c   8.56467898
_cell_angle_alpha   47.05596893
_cell_angle_beta   47.05596892
_cell_angle_gamma   47.05596898
_symmetry_Int_Tables_number   1
_chemical_formula_structural   CrSiTe3
_chemical_formula_sum   'Cr2 Si2 Te6'
_cell_volume   307.77245168
_cell_formula_units_Z   2
loop_
 _symmetry_equiv_pos_site_id
 _symmetry_equiv_pos_as_xyz
  1  'x, y, z'
loop_
 _atom_site_type_symbol
 _atom_site_label
 _atom_site_symmetry_multiplicity
 _atom_site_fract_x
 _atom_site_fract_y
 _atom_site_fract_z
 _atom_site_occupancy
  Cr  Cr1  1  0.974125  0.974125  0.974125  1.0
  Cr  Cr2  1  0.306939  0.306939  0.306939  1.0
  Si  Si3  1  0.590328  0.590328  0.590328  1.0
  Si  Si4  1  0.690521  0.690521  0.690521  1.0
  Te  Te5  1  0.927359  0.565618  0.201614  1.0
  Te  Te6  1  0.201614  0.927359  0.565618  1.0
  Te  Te7  1  0.565618  0.201614  0.927359  1.0
  Te  Te8  1  0.715357  0.079247  0.353822  1.0
  Te  Te9  1  0.079247  0.353822  0.715357  1.0
  Te  Te10  1  0.353822  0.715357  0.079247  1.0
