# generated using pymatgen
data_IrPb
_symmetry_space_group_name_H-M   'P 1'
_cell_length_a   4.19788386
_cell_length_b   4.19788342
_cell_length_c   5.67572947
_cell_angle_alpha   90.00000000
_cell_angle_beta   90.00000000
_cell_angle_gamma   120.00000345
_symmetry_Int_Tables_number   1
_chemical_formula_structural   IrPb
_chemical_formula_sum   'Ir2 Pb2'
_cell_volume   86.61898615
_cell_formula_units_Z   2
loop_
 _symmetry_equiv_pos_site_id
 _symmetry_equiv_pos_as_xyz
  1  'x, y, z'
loop_
 _atom_site_type_symbol
 _atom_site_label
 _atom_site_symmetry_multiplicity
 _atom_site_fract_x
 _atom_site_fract_y
 _atom_site_fract_z
 _atom_site_occupancy
  Ir  Ir1  1  0.000000  0.000000  0.000000  1.0
  Ir  Ir2  1  0.000000  0.000000  0.500000  1.0
  Pb  Pb3  1  0.333333  0.666667  0.250000  1.0
  Pb  Pb4  1  0.666667  0.333333  0.750000  1.0
