# generated using pymatgen
data_TmMnRh2
_symmetry_space_group_name_H-M   'P 1'
_cell_length_a   4.56032199
_cell_length_b   4.56038288
_cell_length_c   4.56040342
_cell_angle_alpha   60.00005073
_cell_angle_beta   60.00076819
_cell_angle_gamma   59.99967819
_symmetry_Int_Tables_number   1
_chemical_formula_structural   TmMnRh2
_chemical_formula_sum   'Tm1 Mn1 Rh2'
_cell_volume   67.06357655
_cell_formula_units_Z   1
loop_
 _symmetry_equiv_pos_site_id
 _symmetry_equiv_pos_as_xyz
  1  'x, y, z'
loop_
 _atom_site_type_symbol
 _atom_site_label
 _atom_site_symmetry_multiplicity
 _atom_site_fract_x
 _atom_site_fract_y
 _atom_site_fract_z
 _atom_site_occupancy
  Tm  Tm1  1  0.749998  0.750000  0.750000  1.0
  Mn  Mn2  1  0.250001  0.250000  0.250000  1.0
  Rh  Rh3  1  0.000004  0.999998  0.999999  1.0
  Rh  Rh4  1  0.499996  0.500001  0.500001  1.0
