# generated using pymatgen
data_Y2Si2O7
_symmetry_space_group_name_H-M   'P 1'
_cell_length_a   4.78859888
_cell_length_b   5.71650805
_cell_length_c   5.71650836
_cell_angle_alpha   105.34143027
_cell_angle_beta   97.17929907
_cell_angle_gamma   97.17930768
_symmetry_Int_Tables_number   1
_chemical_formula_structural   Y2Si2O7
_chemical_formula_sum   'Y2 Si2 O7'
_cell_volume   147.66828077
_cell_formula_units_Z   1
loop_
 _symmetry_equiv_pos_site_id
 _symmetry_equiv_pos_as_xyz
  1  'x, y, z'
loop_
 _atom_site_type_symbol
 _atom_site_label
 _atom_site_symmetry_multiplicity
 _atom_site_fract_x
 _atom_site_fract_y
 _atom_site_fract_z
 _atom_site_occupancy
  Y  Y1  1  0.000000  0.307435  0.692565  1.0
  Y  Y2  1  0.000000  0.692565  0.307435  1.0
  Si  Si3  1  0.411323  0.217339  0.217339  1.0
  Si  Si4  1  0.588677  0.782661  0.782661  1.0
  O  O5  1  0.778979  0.914233  0.616629  1.0
  O  O6  1  0.221021  0.383371  0.085767  1.0
  O  O7  1  0.221021  0.085767  0.383371  1.0
  O  O8  1  0.778979  0.616629  0.914233  1.0
  O  O9  1  0.500000  0.000000  0.000000  1.0
  O  O10  1  0.287167  0.619884  0.619884  1.0
  O  O11  1  0.712833  0.380116  0.380116  1.0
