# generated using pymatgen
data_LuFe2
_symmetry_space_group_name_H-M   'P 1'
_cell_length_a   5.05312731
_cell_length_b   5.05312730
_cell_length_c   5.05312731
_cell_angle_alpha   60.00000003
_cell_angle_beta   60.00000005
_cell_angle_gamma   60.00000009
_symmetry_Int_Tables_number   1
_chemical_formula_structural   LuFe2
_chemical_formula_sum   'Lu2 Fe4'
_cell_volume   91.23589196
_cell_formula_units_Z   2
loop_
 _symmetry_equiv_pos_site_id
 _symmetry_equiv_pos_as_xyz
  1  'x, y, z'
loop_
 _atom_site_type_symbol
 _atom_site_label
 _atom_site_symmetry_multiplicity
 _atom_site_fract_x
 _atom_site_fract_y
 _atom_site_fract_z
 _atom_site_occupancy
  Lu  Lu1  1  0.875000  0.875000  0.875000  1.0
  Lu  Lu2  1  0.125000  0.125000  0.125000  1.0
  Fe  Fe3  1  0.500000  0.500000  0.500000  1.0
  Fe  Fe4  1  0.500000  0.500000  0.000000  1.0
  Fe  Fe5  1  0.000000  0.500000  0.500000  1.0
  Fe  Fe6  1  0.500000  0.000000  0.500000  1.0
