# generated using pymatgen
data_Er2ZnRu
_symmetry_space_group_name_H-M   'P 1'
_cell_length_a   4.87461101
_cell_length_b   4.87462525
_cell_length_c   4.87462699
_cell_angle_alpha   59.99999779
_cell_angle_beta   59.99996401
_cell_angle_gamma   59.99998541
_symmetry_Int_Tables_number   1
_chemical_formula_structural   Er2ZnRu
_chemical_formula_sum   'Er2 Zn1 Ru1'
_cell_volume   81.90443457
_cell_formula_units_Z   1
loop_
 _symmetry_equiv_pos_site_id
 _symmetry_equiv_pos_as_xyz
  1  'x, y, z'
loop_
 _atom_site_type_symbol
 _atom_site_label
 _atom_site_symmetry_multiplicity
 _atom_site_fract_x
 _atom_site_fract_y
 _atom_site_fract_z
 _atom_site_occupancy
  Er  Er1  1  0.999999  0.999999  0.000000  1.0
  Er  Er2  1  0.500000  0.500001  0.500001  1.0
  Zn  Zn3  1  0.750000  0.749999  0.750000  1.0
  Ru  Ru4  1  0.250001  0.250001  0.250001  1.0
