# generated using pymatgen
data_ZrInPt2
_symmetry_space_group_name_H-M   'P 1'
_cell_length_a   4.71410621
_cell_length_b   4.71410635
_cell_length_c   4.71410603
_cell_angle_alpha   59.99999486
_cell_angle_beta   59.99999392
_cell_angle_gamma   59.99999692
_symmetry_Int_Tables_number   1
_chemical_formula_structural   ZrInPt2
_chemical_formula_sum   'Zr1 In1 Pt2'
_cell_volume   74.07694114
_cell_formula_units_Z   1
loop_
 _symmetry_equiv_pos_site_id
 _symmetry_equiv_pos_as_xyz
  1  'x, y, z'
loop_
 _atom_site_type_symbol
 _atom_site_label
 _atom_site_symmetry_multiplicity
 _atom_site_fract_x
 _atom_site_fract_y
 _atom_site_fract_z
 _atom_site_occupancy
  Zr  Zr1  1  0.500000  0.500000  0.500000  1.0
  In  In2  1  0.000000  0.000000  0.000000  1.0
  Pt  Pt3  1  0.750000  0.750000  0.750000  1.0
  Pt  Pt4  1  0.250000  0.250000  0.250000  1.0
