# generated using pymatgen
data_HfSnRu2
_symmetry_space_group_name_H-M   'P 1'
_cell_length_a   4.56098251
_cell_length_b   4.56098251
_cell_length_c   4.56098251
_cell_angle_alpha   60.00000000
_cell_angle_beta   60.00000000
_cell_angle_gamma   60.00000000
_symmetry_Int_Tables_number   1
_chemical_formula_structural   HfSnRu2
_chemical_formula_sum   'Hf1 Sn1 Ru2'
_cell_volume   67.09037552
_cell_formula_units_Z   1
loop_
 _symmetry_equiv_pos_site_id
 _symmetry_equiv_pos_as_xyz
  1  'x, y, z'
loop_
 _atom_site_type_symbol
 _atom_site_label
 _atom_site_symmetry_multiplicity
 _atom_site_fract_x
 _atom_site_fract_y
 _atom_site_fract_z
 _atom_site_occupancy
  Hf  Hf1  1  0.249999  0.249999  0.249999  1.0
  Sn  Sn2  1  0.749999  0.749999  0.749999  1.0
  Ru  Ru3  1  0.000000  0.000000  0.000000  1.0
  Ru  Ru4  1  0.500000  0.500000  0.500000  1.0
