# generated using pymatgen
data_Li3Pb
_symmetry_space_group_name_H-M   'P 1'
_cell_length_a   4.74471845
_cell_length_b   4.74471845
_cell_length_c   4.74471845
_cell_angle_alpha   120.56179276
_cell_angle_beta   120.56179276
_cell_angle_gamma   89.02966981
_symmetry_Int_Tables_number   1
_chemical_formula_structural   Li3Pb
_chemical_formula_sum   'Li3 Pb1'
_cell_volume   74.87645147
_cell_formula_units_Z   1
loop_
 _symmetry_equiv_pos_site_id
 _symmetry_equiv_pos_as_xyz
  1  'x, y, z'
loop_
 _atom_site_type_symbol
 _atom_site_label
 _atom_site_symmetry_multiplicity
 _atom_site_fract_x
 _atom_site_fract_y
 _atom_site_fract_z
 _atom_site_occupancy
  Li  Li1  1  0.750002  0.250001  0.500001  1.0
  Li  Li2  1  0.250001  0.750002  0.500001  1.0
  Li  Li3  1  0.500000  0.500000  0.000000  1.0
  Pb  Pb4  1  0.000000  0.000000  0.000000  1.0
