# generated using pymatgen
data_FeO
_symmetry_space_group_name_H-M   'P 1'
_cell_length_a   3.06950326
_cell_length_b   5.31855916
_cell_length_c   3.05654971
_cell_angle_alpha   89.73427842
_cell_angle_beta   59.80736465
_cell_angle_gamma   73.14831916
_symmetry_Int_Tables_number   1
_chemical_formula_structural   FeO
_chemical_formula_sum   'Fe2 O2'
_cell_volume   40.67241370
_cell_formula_units_Z   2
loop_
 _symmetry_equiv_pos_site_id
 _symmetry_equiv_pos_as_xyz
  1  'x, y, z'
loop_
 _atom_site_type_symbol
 _atom_site_label
 _atom_site_symmetry_multiplicity
 _atom_site_fract_x
 _atom_site_fract_y
 _atom_site_fract_z
 _atom_site_occupancy
  Fe  Fe1  1  0.000000  0.000000  0.000000  1.0
  Fe  Fe2  1  0.000000  0.500000  0.500000  1.0
  O  O3  1  0.502509  0.250009  0.749768  1.0
  O  O4  1  0.497491  0.749991  0.250232  1.0
