# generated using pymatgen
data_LuP5
_symmetry_space_group_name_H-M   'P 1'
_cell_length_a   4.90548075
_cell_length_b   5.29574049
_cell_length_c   9.32544212
_cell_angle_alpha   90.00000000
_cell_angle_beta   90.00000000
_cell_angle_gamma   102.42788767
_symmetry_Int_Tables_number   1
_chemical_formula_structural   LuP5
_chemical_formula_sum   'Lu2 P10'
_cell_volume   236.58109238
_cell_formula_units_Z   2
loop_
 _symmetry_equiv_pos_site_id
 _symmetry_equiv_pos_as_xyz
  1  'x, y, z'
loop_
 _atom_site_type_symbol
 _atom_site_label
 _atom_site_symmetry_multiplicity
 _atom_site_fract_x
 _atom_site_fract_y
 _atom_site_fract_z
 _atom_site_occupancy
  Lu  Lu1  1  0.001824  0.346922  0.250000  1.0
  Lu  Lu2  1  0.998176  0.653078  0.750000  1.0
  P  P3  1  0.269183  0.889895  0.250000  1.0
  P  P4  1  0.730817  0.110105  0.750000  1.0
  P  P5  1  0.616977  0.957576  0.406195  1.0
  P  P6  1  0.383023  0.042424  0.906195  1.0
  P  P7  1  0.383023  0.042424  0.593805  1.0
  P  P8  1  0.616977  0.957576  0.093805  1.0
  P  P9  1  0.717872  0.594327  0.471818  1.0
  P  P10  1  0.282128  0.405673  0.971818  1.0
  P  P11  1  0.282128  0.405673  0.528182  1.0
  P  P12  1  0.717872  0.594327  0.028182  1.0
