# generated using pymatgen
data_Ca3Sn2O7
_symmetry_space_group_name_H-M   'P 1'
_cell_length_a   5.78485063
_cell_length_b   5.64786898
_cell_length_c   10.35661329
_cell_angle_alpha   105.82318482
_cell_angle_beta   90.00000000
_cell_angle_gamma   90.00000000
_symmetry_Int_Tables_number   1
_chemical_formula_structural   Ca3Sn2O7
_chemical_formula_sum   'Ca6 Sn4 O14'
_cell_volume   325.55039746
_cell_formula_units_Z   2
loop_
 _symmetry_equiv_pos_site_id
 _symmetry_equiv_pos_as_xyz
  1  'x, y, z'
loop_
 _atom_site_type_symbol
 _atom_site_label
 _atom_site_symmetry_multiplicity
 _atom_site_fract_x
 _atom_site_fract_y
 _atom_site_fract_z
 _atom_site_occupancy
  Ca  Ca1  1  0.698139  0.759507  0.000000  1.0
  Ca  Ca2  1  0.198139  0.240493  0.000000  1.0
  Ca  Ca3  1  0.804786  0.572895  0.616843  1.0
  Ca  Ca4  1  0.304786  0.427105  0.383157  1.0
  Ca  Ca5  1  0.804786  0.956051  0.383157  1.0
  Ca  Ca6  1  0.304786  0.043949  0.616843  1.0
  Sn  Sn7  1  0.750290  0.352063  0.200759  1.0
  Sn  Sn8  1  0.250290  0.647937  0.799241  1.0
  Sn  Sn9  1  0.250290  0.848696  0.200759  1.0
  Sn  Sn10  1  0.750290  0.151304  0.799241  1.0
  O  O11  1  0.711370  0.962879  0.598551  1.0
  O  O12  1  0.211370  0.037121  0.401449  1.0
  O  O13  1  0.211370  0.635670  0.598551  1.0
  O  O14  1  0.711370  0.364330  0.401449  1.0
  O  O15  1  0.053116  0.322502  0.759245  1.0
  O  O16  1  0.553116  0.677498  0.240755  1.0
  O  O17  1  0.553116  0.436743  0.759245  1.0
  O  O18  1  0.053116  0.563257  0.240755  1.0
  O  O19  1  0.945366  0.863958  0.841826  1.0
  O  O20  1  0.445366  0.136042  0.158174  1.0
  O  O21  1  0.792007  0.352112  0.000000  1.0
  O  O22  1  0.292007  0.647888  0.000000  1.0
  O  O23  1  0.945366  0.022132  0.158174  1.0
  O  O24  1  0.445366  0.977868  0.841826  1.0
