# generated using pymatgen
data_YbTaRu2
_symmetry_space_group_name_H-M   'P 1'
_cell_length_a   4.53089628
_cell_length_b   4.53089628
_cell_length_c   4.53089628
_cell_angle_alpha   60.40192691
_cell_angle_beta   60.40192691
_cell_angle_gamma   60.40192691
_symmetry_Int_Tables_number   1
_chemical_formula_structural   YbTaRu2
_chemical_formula_sum   'Yb1 Ta1 Ru2'
_cell_volume   66.36925870
_cell_formula_units_Z   1
loop_
 _symmetry_equiv_pos_site_id
 _symmetry_equiv_pos_as_xyz
  1  'x, y, z'
loop_
 _atom_site_type_symbol
 _atom_site_label
 _atom_site_symmetry_multiplicity
 _atom_site_fract_x
 _atom_site_fract_y
 _atom_site_fract_z
 _atom_site_occupancy
  Yb  Yb1  1  0.750042  0.750042  0.750042  1.0
  Ta  Ta2  1  0.249957  0.249957  0.249957  1.0
  Ru  Ru3  1  0.500305  0.500305  0.500305  1.0
  Ru  Ru4  1  0.999696  0.999696  0.999696  1.0
