# generated using pymatgen
data_MgRe3
_symmetry_space_group_name_H-M   'P 1'
_cell_length_a   4.40464116
_cell_length_b   4.40462824
_cell_length_c   4.40458887
_cell_angle_alpha   59.99811964
_cell_angle_beta   60.00144197
_cell_angle_gamma   59.99943281
_symmetry_Int_Tables_number   1
_chemical_formula_structural   MgRe3
_chemical_formula_sum   'Mg1 Re3'
_cell_volume   60.42363798
_cell_formula_units_Z   1
loop_
 _symmetry_equiv_pos_site_id
 _symmetry_equiv_pos_as_xyz
  1  'x, y, z'
loop_
 _atom_site_type_symbol
 _atom_site_label
 _atom_site_symmetry_multiplicity
 _atom_site_fract_x
 _atom_site_fract_y
 _atom_site_fract_z
 _atom_site_occupancy
  Mg  Mg1  1  0.750004  0.749998  0.750000  1.0
  Re  Re2  1  0.000001  0.999988  0.000007  1.0
  Re  Re3  1  0.250001  0.249997  0.249995  1.0
  Re  Re4  1  0.499995  0.500019  0.499998  1.0
