# generated using pymatgen
data_Pm2GePd
_symmetry_space_group_name_H-M   'P 1'
_cell_length_a   5.15233998
_cell_length_b   5.15233998
_cell_length_c   5.15233998
_cell_angle_alpha   60.00000000
_cell_angle_beta   60.00000000
_cell_angle_gamma   60.00000000
_symmetry_Int_Tables_number   1
_chemical_formula_structural   Pm2GePd
_chemical_formula_sum   'Pm2 Ge1 Pd1'
_cell_volume   96.71604743
_cell_formula_units_Z   1
loop_
 _symmetry_equiv_pos_site_id
 _symmetry_equiv_pos_as_xyz
  1  'x, y, z'
loop_
 _atom_site_type_symbol
 _atom_site_label
 _atom_site_symmetry_multiplicity
 _atom_site_fract_x
 _atom_site_fract_y
 _atom_site_fract_z
 _atom_site_occupancy
  Pm  Pm1  1  0.000000  0.000000  0.000000  1.0
  Pm  Pm2  1  0.499999  0.499999  0.499999  1.0
  Ge  Ge3  1  0.250001  0.250001  0.250001  1.0
  Pd  Pd4  1  0.750001  0.750001  0.750001  1.0
