# generated using pymatgen
data_Li7B18O
_symmetry_space_group_name_H-M   'P 1'
_cell_length_a   8.17631494
_cell_length_b   8.18557472
_cell_length_c   4.12317850
_cell_angle_alpha   90.00000000
_cell_angle_beta   90.00000000
_cell_angle_gamma   120.07678658
_symmetry_Int_Tables_number   1
_chemical_formula_structural   Li7B18O
_chemical_formula_sum   'Li7 B18 O1'
_cell_volume   238.79927301
_cell_formula_units_Z   1
loop_
 _symmetry_equiv_pos_site_id
 _symmetry_equiv_pos_as_xyz
  1  'x, y, z'
loop_
 _atom_site_type_symbol
 _atom_site_label
 _atom_site_symmetry_multiplicity
 _atom_site_fract_x
 _atom_site_fract_y
 _atom_site_fract_z
 _atom_site_occupancy
  Li  Li1  1  0.179285  0.286603  0.000000  1.0
  Li  Li2  1  0.345577  0.681933  0.000000  1.0
  Li  Li3  1  0.004387  0.013939  0.500000  1.0
  Li  Li4  1  0.228789  0.992586  0.000000  1.0
  Li  Li5  1  0.653203  0.329773  0.000000  1.0
  Li  Li6  1  0.848378  0.738686  0.000000  1.0
  Li  Li7  1  0.809697  0.073715  0.000000  1.0
  B  B8  1  0.999559  0.499132  0.801111  1.0
  B  B9  1  0.121585  0.672941  0.500000  1.0
  B  B10  1  0.327563  0.877832  0.500000  1.0
  B  B11  1  0.122440  0.450352  0.500000  1.0
  B  B12  1  0.500812  0.000966  0.796932  1.0
  B  B13  1  0.329934  0.453331  0.500000  1.0
  B  B14  1  0.551752  0.879208  0.500000  1.0
  B  B15  1  0.553734  0.675883  0.500000  1.0
  B  B16  1  0.502030  0.503083  0.202244  1.0
  B  B17  1  0.502030  0.503083  0.797756  1.0
  B  B18  1  0.448584  0.328250  0.500000  1.0
  B  B19  1  0.449593  0.123420  0.500000  1.0
  B  B20  1  0.673283  0.551079  0.500000  1.0
  B  B21  1  0.500812  0.000966  0.203068  1.0
  B  B22  1  0.877702  0.549752  0.500000  1.0
  B  B23  1  0.671654  0.123635  0.500000  1.0
  B  B24  1  0.878021  0.327386  0.500000  1.0
  B  B25  1  0.999559  0.499132  0.198889  1.0
  O  O26  1  0.009987  0.015282  0.000000  1.0
