# generated using pymatgen
data_Ca6Ag16N
_symmetry_space_group_name_H-M   'P 1'
_cell_length_a   9.91350697
_cell_length_b   9.91350697
_cell_length_c   9.91350697
_cell_angle_alpha   90.00000000
_cell_angle_beta   90.00000000
_cell_angle_gamma   90.00000000
_symmetry_Int_Tables_number   1
_chemical_formula_structural   Ca6Ag16N
_chemical_formula_sum   'Ca12 Ag32 N2'
_cell_volume   974.27587527
_cell_formula_units_Z   2
loop_
 _symmetry_equiv_pos_site_id
 _symmetry_equiv_pos_as_xyz
  1  'x, y, z'
loop_
 _atom_site_type_symbol
 _atom_site_label
 _atom_site_symmetry_multiplicity
 _atom_site_fract_x
 _atom_site_fract_y
 _atom_site_fract_z
 _atom_site_occupancy
  Ca  Ca1  1  0.754911  0.500000  0.500000  1.0
  Ca  Ca2  1  0.000000  0.254911  0.000000  1.0
  Ca  Ca3  1  0.000000  0.745089  0.000000  1.0
  Ca  Ca4  1  0.500000  0.500000  0.245089  1.0
  Ca  Ca5  1  0.000000  0.000000  0.254911  1.0
  Ca  Ca6  1  0.745089  0.000000  0.000000  1.0
  Ca  Ca7  1  0.254911  0.000000  0.000000  1.0
  Ca  Ca8  1  0.500000  0.754911  0.500000  1.0
  Ca  Ca9  1  0.500000  0.245089  0.500000  1.0
  Ca  Ca10  1  0.000000  0.000000  0.745089  1.0
  Ca  Ca11  1  0.500000  0.500000  0.754911  1.0
  Ca  Ca12  1  0.245089  0.500000  0.500000  1.0
  Ag  Ag13  1  0.250000  0.250000  0.250000  1.0
  Ag  Ag14  1  0.750000  0.250000  0.250000  1.0
  Ag  Ag15  1  0.750000  0.250000  0.750000  1.0
  Ag  Ag16  1  0.250000  0.250000  0.750000  1.0
  Ag  Ag17  1  0.000000  0.346989  0.346989  1.0
  Ag  Ag18  1  0.153011  0.500000  0.846989  1.0
  Ag  Ag19  1  0.346989  0.000000  0.346989  1.0
  Ag  Ag20  1  0.346989  0.346989  0.000000  1.0
  Ag  Ag21  1  0.653011  0.346989  0.000000  1.0
  Ag  Ag22  1  0.000000  0.653011  0.346989  1.0
  Ag  Ag23  1  0.500000  0.846989  0.153011  1.0
  Ag  Ag24  1  0.153011  0.153011  0.500000  1.0
  Ag  Ag25  1  0.846989  0.500000  0.153011  1.0
  Ag  Ag26  1  0.846989  0.153011  0.500000  1.0
  Ag  Ag27  1  0.153011  0.500000  0.153011  1.0
  Ag  Ag28  1  0.500000  0.153011  0.153011  1.0
  Ag  Ag29  1  0.750000  0.750000  0.750000  1.0
  Ag  Ag30  1  0.250000  0.750000  0.750000  1.0
  Ag  Ag31  1  0.250000  0.750000  0.250000  1.0
  Ag  Ag32  1  0.750000  0.750000  0.250000  1.0
  Ag  Ag33  1  0.500000  0.846989  0.846989  1.0
  Ag  Ag34  1  0.653011  0.000000  0.346989  1.0
  Ag  Ag35  1  0.846989  0.500000  0.846989  1.0
  Ag  Ag36  1  0.846989  0.846989  0.500000  1.0
  Ag  Ag37  1  0.153011  0.846989  0.500000  1.0
  Ag  Ag38  1  0.500000  0.153011  0.846989  1.0
  Ag  Ag39  1  0.000000  0.346989  0.653011  1.0
  Ag  Ag40  1  0.653011  0.653011  0.000000  1.0
  Ag  Ag41  1  0.346989  0.000000  0.653011  1.0
  Ag  Ag42  1  0.346989  0.653011  0.000000  1.0
  Ag  Ag43  1  0.653011  0.000000  0.653011  1.0
  Ag  Ag44  1  0.000000  0.653011  0.653011  1.0
  N  N45  1  0.000000  0.000000  0.000000  1.0
  N  N46  1  0.500000  0.500000  0.500000  1.0
