# generated using pymatgen
data_TmScHg2
_symmetry_space_group_name_H-M   'P 1'
_cell_length_a   5.09720982
_cell_length_b   5.09723416
_cell_length_c   5.09725497
_cell_angle_alpha   60.00078640
_cell_angle_beta   60.00019801
_cell_angle_gamma   60.00047193
_symmetry_Int_Tables_number   1
_chemical_formula_structural   TmScHg2
_chemical_formula_sum   'Tm1 Sc1 Hg2'
_cell_volume   93.64686349
_cell_formula_units_Z   1
loop_
 _symmetry_equiv_pos_site_id
 _symmetry_equiv_pos_as_xyz
  1  'x, y, z'
loop_
 _atom_site_type_symbol
 _atom_site_label
 _atom_site_symmetry_multiplicity
 _atom_site_fract_x
 _atom_site_fract_y
 _atom_site_fract_z
 _atom_site_occupancy
  Tm  Tm1  1  0.750003  0.749996  0.749998  1.0
  Sc  Sc2  1  0.249992  0.250008  0.250004  1.0
  Hg  Hg3  1  0.000002  0.999997  0.000000  1.0
  Hg  Hg4  1  0.500003  0.499998  0.499998  1.0
