# generated using pymatgen
data_PrBS3
_symmetry_space_group_name_H-M   'P 1'
_cell_length_a   7.67603232
_cell_length_b   6.03267374
_cell_length_c   8.99600094
_cell_angle_alpha   90.00000000
_cell_angle_beta   90.00000000
_cell_angle_gamma   90.00000000
_symmetry_Int_Tables_number   1
_chemical_formula_structural   PrBS3
_chemical_formula_sum   'Pr4 B4 S12'
_cell_volume   416.57780297
_cell_formula_units_Z   4
loop_
 _symmetry_equiv_pos_site_id
 _symmetry_equiv_pos_as_xyz
  1  'x, y, z'
loop_
 _atom_site_type_symbol
 _atom_site_label
 _atom_site_symmetry_multiplicity
 _atom_site_fract_x
 _atom_site_fract_y
 _atom_site_fract_z
 _atom_site_occupancy
  Pr  Pr1  1  0.885956  0.070796  0.433205  1.0
  Pr  Pr2  1  0.114044  0.929204  0.933204  1.0
  Pr  Pr3  1  0.614045  0.570796  0.933204  1.0
  Pr  Pr4  1  0.385955  0.429204  0.433205  1.0
  B  B5  1  0.853773  0.596221  0.604387  1.0
  B  B6  1  0.146226  0.403781  0.104386  1.0
  B  B7  1  0.646226  0.096221  0.104386  1.0
  B  B8  1  0.353774  0.903781  0.604387  1.0
  S  S9  1  0.826886  0.834635  0.726593  1.0
  S  S10  1  0.173114  0.165365  0.226593  1.0
  S  S11  1  0.673113  0.334635  0.226593  1.0
  S  S12  1  0.326887  0.665365  0.726593  1.0
  S  S13  1  0.204270  0.134063  0.635559  1.0
  S  S14  1  0.795731  0.865935  0.135559  1.0
  S  S15  1  0.295731  0.634063  0.135559  1.0
  S  S16  1  0.704269  0.365937  0.635559  1.0
  S  S17  1  0.997969  0.595688  0.446076  1.0
  S  S18  1  0.002030  0.404313  0.946075  1.0
  S  S19  1  0.502031  0.095688  0.946075  1.0
  S  S20  1  0.497970  0.904313  0.446076  1.0
