# generated using pymatgen
data_Sc2ZnGa
_symmetry_space_group_name_H-M   'P 1'
_cell_length_a   4.74922536
_cell_length_b   4.74924735
_cell_length_c   4.74924018
_cell_angle_alpha   59.99979467
_cell_angle_beta   59.99959323
_cell_angle_gamma   59.99964913
_symmetry_Int_Tables_number   1
_chemical_formula_structural   Sc2ZnGa
_chemical_formula_sum   'Sc2 Zn1 Ga1'
_cell_volume   75.74492540
_cell_formula_units_Z   1
loop_
 _symmetry_equiv_pos_site_id
 _symmetry_equiv_pos_as_xyz
  1  'x, y, z'
loop_
 _atom_site_type_symbol
 _atom_site_label
 _atom_site_symmetry_multiplicity
 _atom_site_fract_x
 _atom_site_fract_y
 _atom_site_fract_z
 _atom_site_occupancy
  Sc  Sc1  1  0.000000  0.999999  0.000000  1.0
  Sc  Sc2  1  0.500000  0.500001  0.499999  1.0
  Zn  Zn3  1  0.749999  0.749999  0.750000  1.0
  Ga  Ga4  1  0.249999  0.249999  0.250000  1.0
