# generated using pymatgen
data_LiLu2Al
_symmetry_space_group_name_H-M   'P 1'
_cell_length_a   5.04342760
_cell_length_b   5.04342092
_cell_length_c   5.04345691
_cell_angle_alpha   59.99982432
_cell_angle_beta   59.99987051
_cell_angle_gamma   60.00016900
_symmetry_Int_Tables_number   1
_chemical_formula_structural   LiLu2Al
_chemical_formula_sum   'Li1 Lu2 Al1'
_cell_volume   90.71181911
_cell_formula_units_Z   1
loop_
 _symmetry_equiv_pos_site_id
 _symmetry_equiv_pos_as_xyz
  1  'x, y, z'
loop_
 _atom_site_type_symbol
 _atom_site_label
 _atom_site_symmetry_multiplicity
 _atom_site_fract_x
 _atom_site_fract_y
 _atom_site_fract_z
 _atom_site_occupancy
  Li  Li1  1  0.750000  0.750000  0.750001  1.0
  Lu  Lu2  1  0.000000  0.999993  0.000005  1.0
  Lu  Lu3  1  0.499999  0.500006  0.499993  1.0
  Al  Al4  1  0.250000  0.250000  0.250001  1.0
