# generated using pymatgen
data_Cu2SnTe3
_symmetry_space_group_name_H-M   'P 1'
_cell_length_a   8.71045734
_cell_length_b   13.08231149
_cell_length_c   7.55320600
_cell_angle_alpha   29.94639034
_cell_angle_beta   54.87267154
_cell_angle_gamma   60.13392122
_symmetry_Int_Tables_number   1
_chemical_formula_structural   Cu2SnTe3
_chemical_formula_sum   'Cu4 Sn2 Te6'
_cell_volume   351.40573479
_cell_formula_units_Z   2
loop_
 _symmetry_equiv_pos_site_id
 _symmetry_equiv_pos_as_xyz
  1  'x, y, z'
loop_
 _atom_site_type_symbol
 _atom_site_label
 _atom_site_symmetry_multiplicity
 _atom_site_fract_x
 _atom_site_fract_y
 _atom_site_fract_z
 _atom_site_occupancy
  Cu  Cu1  1  0.996584  0.996932  0.998987  1.0
  Cu  Cu2  1  0.997962  0.659879  0.016351  1.0
  Cu  Cu3  1  0.494241  0.330769  0.997683  1.0
  Cu  Cu4  1  0.496903  0.668690  0.000930  1.0
  Sn  Sn5  1  0.011506  0.341447  0.986218  1.0
  Sn  Sn6  1  0.513791  0.983989  0.020920  1.0
  Te  Te7  1  0.108907  0.970597  0.290431  1.0
  Te  Te8  1  0.132665  0.331310  0.276442  1.0
  Te  Te9  1  0.634459  0.997912  0.275262  1.0
  Te  Te10  1  0.135781  0.690439  0.193355  1.0
  Te  Te11  1  0.605741  0.356801  0.212081  1.0
  Te  Te12  1  0.636529  0.636391  0.271209  1.0
