# generated using pymatgen
data_Ca2Sn3O8
_symmetry_space_group_name_H-M   'P 1'
_cell_length_a   5.40742911
_cell_length_b   6.42234444
_cell_length_c   6.58456771
_cell_angle_alpha   119.18831216
_cell_angle_beta   108.02776940
_cell_angle_gamma   89.99999653
_symmetry_Int_Tables_number   1
_chemical_formula_structural   Ca2Sn3O8
_chemical_formula_sum   'Ca2 Sn3 O8'
_cell_volume   186.67062066
_cell_formula_units_Z   1
loop_
 _symmetry_equiv_pos_site_id
 _symmetry_equiv_pos_as_xyz
  1  'x, y, z'
loop_
 _atom_site_type_symbol
 _atom_site_label
 _atom_site_symmetry_multiplicity
 _atom_site_fract_x
 _atom_site_fract_y
 _atom_site_fract_z
 _atom_site_occupancy
  Ca  Ca1  1  0.657573  0.720021  0.440041  1.0
  Ca  Ca2  1  0.342426  0.279980  0.559959  1.0
  Sn  Sn3  1  0.500000  0.999999  0.000000  1.0
  Sn  Sn4  1  0.999999  0.737428  0.000000  1.0
  Sn  Sn5  1  0.999999  0.262572  0.000000  1.0
  O  O6  1  0.052477  0.389115  0.778231  1.0
  O  O7  1  0.947523  0.610884  0.221769  1.0
  O  O8  1  0.084893  0.897966  0.795933  1.0
  O  O9  1  0.915107  0.102033  0.204066  1.0
  O  O10  1  0.398985  0.331363  0.218835  1.0
  O  O11  1  0.398985  0.887472  0.218835  1.0
  O  O12  1  0.601016  0.112527  0.781165  1.0
  O  O13  1  0.601016  0.668637  0.781165  1.0
