# generated using pymatgen
data_RbCuBr3
_symmetry_space_group_name_H-M   'P 1'
_cell_length_a   5.17966308
_cell_length_b   5.18819472
_cell_length_c   5.19182966
_cell_angle_alpha   90.07442037
_cell_angle_beta   90.01273217
_cell_angle_gamma   90.05079779
_symmetry_Int_Tables_number   1
_chemical_formula_structural   RbCuBr3
_chemical_formula_sum   'Rb1 Cu1 Br3'
_cell_volume   139.52038497
_cell_formula_units_Z   1
loop_
 _symmetry_equiv_pos_site_id
 _symmetry_equiv_pos_as_xyz
  1  'x, y, z'
loop_
 _atom_site_type_symbol
 _atom_site_label
 _atom_site_symmetry_multiplicity
 _atom_site_fract_x
 _atom_site_fract_y
 _atom_site_fract_z
 _atom_site_occupancy
  Rb  Rb1  1  0.994538  0.990100  0.985689  1.0
  Cu  Cu2  1  0.493444  0.489445  0.485521  1.0
  Br  Br3  1  0.496225  0.492864  0.985876  1.0
  Br  Br4  1  0.492163  0.989765  0.487820  1.0
  Br  Br5  1  0.993628  0.487828  0.485094  1.0
