# generated using pymatgen
data_NaTmTl2
_symmetry_space_group_name_H-M   'P 1'
_cell_length_a   5.33017721
_cell_length_b   5.33017721
_cell_length_c   5.33017721
_cell_angle_alpha   60.01497660
_cell_angle_beta   60.01497660
_cell_angle_gamma   60.01497660
_symmetry_Int_Tables_number   1
_chemical_formula_structural   NaTmTl2
_chemical_formula_sum   'Na1 Tm1 Tl2'
_cell_volume   107.11674696
_cell_formula_units_Z   1
loop_
 _symmetry_equiv_pos_site_id
 _symmetry_equiv_pos_as_xyz
  1  'x, y, z'
loop_
 _atom_site_type_symbol
 _atom_site_label
 _atom_site_symmetry_multiplicity
 _atom_site_fract_x
 _atom_site_fract_y
 _atom_site_fract_z
 _atom_site_occupancy
  Na  Na1  1  0.250002  0.250002  0.250002  1.0
  Tm  Tm2  1  0.750000  0.750000  0.750000  1.0
  Tl  Tl3  1  0.000009  0.000009  0.000009  1.0
  Tl  Tl4  1  0.499990  0.499990  0.499990  1.0
