# generated using pymatgen
data_TiBeRh2
_symmetry_space_group_name_H-M   'P 1'
_cell_length_a   4.19335233
_cell_length_b   4.19335983
_cell_length_c   4.19336150
_cell_angle_alpha   59.99999927
_cell_angle_beta   59.99988994
_cell_angle_gamma   59.99988520
_symmetry_Int_Tables_number   1
_chemical_formula_structural   TiBeRh2
_chemical_formula_sum   'Ti1 Be1 Rh2'
_cell_volume   52.13988269
_cell_formula_units_Z   1
loop_
 _symmetry_equiv_pos_site_id
 _symmetry_equiv_pos_as_xyz
  1  'x, y, z'
loop_
 _atom_site_type_symbol
 _atom_site_label
 _atom_site_symmetry_multiplicity
 _atom_site_fract_x
 _atom_site_fract_y
 _atom_site_fract_z
 _atom_site_occupancy
  Ti  Ti1  1  0.750001  0.750000  0.750000  1.0
  Be  Be2  1  0.250000  0.250000  0.250000  1.0
  Rh  Rh3  1  0.000000  0.000000  0.000001  1.0
  Rh  Rh4  1  0.500000  0.500001  0.500000  1.0
