# generated using pymatgen
data_LiSi3
_symmetry_space_group_name_H-M   'P 1'
_cell_length_a   5.41290396
_cell_length_b   5.41308609
_cell_length_c   4.61059750
_cell_angle_alpha   90.26590976
_cell_angle_beta   89.75279958
_cell_angle_gamma   119.85930524
_symmetry_Int_Tables_number   1
_chemical_formula_structural   LiSi3
_chemical_formula_sum   'Li2 Si6'
_cell_volume   117.15780630
_cell_formula_units_Z   2
loop_
 _symmetry_equiv_pos_site_id
 _symmetry_equiv_pos_as_xyz
  1  'x, y, z'
loop_
 _atom_site_type_symbol
 _atom_site_label
 _atom_site_symmetry_multiplicity
 _atom_site_fract_x
 _atom_site_fract_y
 _atom_site_fract_z
 _atom_site_occupancy
  Li  Li1  1  0.666692  0.333318  0.249999  1.0
  Li  Li2  1  0.333312  0.666685  0.750006  1.0
  Si  Si3  1  0.842523  0.157481  0.750208  1.0
  Si  Si4  1  0.314605  0.157031  0.749892  1.0
  Si  Si5  1  0.842965  0.685394  0.749879  1.0
  Si  Si6  1  0.157481  0.842521  0.249796  1.0
  Si  Si7  1  0.685396  0.842971  0.250105  1.0
  Si  Si8  1  0.157030  0.314603  0.250119  1.0
