# generated using pymatgen
data_TiSnRu2
_symmetry_space_group_name_H-M   'P 1'
_cell_length_a   4.45741499
_cell_length_b   4.45757138
_cell_length_c   4.45740207
_cell_angle_alpha   59.99642891
_cell_angle_beta   59.99849037
_cell_angle_gamma   59.99709300
_symmetry_Int_Tables_number   1
_chemical_formula_structural   TiSnRu2
_chemical_formula_sum   'Ti1 Sn1 Ru2'
_cell_volume   62.62128418
_cell_formula_units_Z   1
loop_
 _symmetry_equiv_pos_site_id
 _symmetry_equiv_pos_as_xyz
  1  'x, y, z'
loop_
 _atom_site_type_symbol
 _atom_site_label
 _atom_site_symmetry_multiplicity
 _atom_site_fract_x
 _atom_site_fract_y
 _atom_site_fract_z
 _atom_site_occupancy
  Ti  Ti1  1  0.750005  0.750015  0.750004  1.0
  Sn  Sn2  1  0.250001  0.249986  0.250008  1.0
  Ru  Ru3  1  0.000013  0.999999  0.999987  1.0
  Ru  Ru4  1  0.499982  0.500002  0.500002  1.0
