# generated using pymatgen
data_Ca6Al2NF
_symmetry_space_group_name_H-M   'P 1'
_cell_length_a   6.96882791
_cell_length_b   6.96881597
_cell_length_c   6.96881792
_cell_angle_alpha   60.00012104
_cell_angle_beta   60.00009532
_cell_angle_gamma   59.99996529
_symmetry_Int_Tables_number   1
_chemical_formula_structural   Ca6Al2NF
_chemical_formula_sum   'Ca6 Al2 N1 F1'
_cell_volume   239.31143553
_cell_formula_units_Z   1
loop_
 _symmetry_equiv_pos_site_id
 _symmetry_equiv_pos_as_xyz
  1  'x, y, z'
loop_
 _atom_site_type_symbol
 _atom_site_label
 _atom_site_symmetry_multiplicity
 _atom_site_fract_x
 _atom_site_fract_y
 _atom_site_fract_z
 _atom_site_occupancy
  Ca  Ca1  1  0.240705  0.759295  0.759296  1.0
  Ca  Ca2  1  0.240704  0.759296  0.240704  1.0
  Ca  Ca3  1  0.759296  0.240704  0.759296  1.0
  Ca  Ca4  1  0.759295  0.759295  0.240704  1.0
  Ca  Ca5  1  0.240704  0.240704  0.759296  1.0
  Ca  Ca6  1  0.759295  0.240704  0.240704  1.0
  Al  Al7  1  0.250000  0.250000  0.250000  1.0
  Al  Al8  1  0.750000  0.750000  0.750000  1.0
  N  N9  1  0.000000  0.000000  0.000000  1.0
  F  F10  1  0.500000  0.500000  0.500000  1.0
