# generated using pymatgen
data_Pm2ZnPb
_symmetry_space_group_name_H-M   'P 1'
_cell_length_a   5.37843238
_cell_length_b   5.37843064
_cell_length_c   5.37843334
_cell_angle_alpha   60.00004192
_cell_angle_beta   60.00007646
_cell_angle_gamma   60.00004880
_symmetry_Int_Tables_number   1
_chemical_formula_structural   Pm2ZnPb
_chemical_formula_sum   'Pm2 Zn1 Pb1'
_cell_volume   110.01518324
_cell_formula_units_Z   1
loop_
 _symmetry_equiv_pos_site_id
 _symmetry_equiv_pos_as_xyz
  1  'x, y, z'
loop_
 _atom_site_type_symbol
 _atom_site_label
 _atom_site_symmetry_multiplicity
 _atom_site_fract_x
 _atom_site_fract_y
 _atom_site_fract_z
 _atom_site_occupancy
  Pm  Pm1  1  0.000000  0.000000  0.000000  1.0
  Pm  Pm2  1  0.500001  0.500001  0.500001  1.0
  Zn  Zn3  1  0.750000  0.750000  0.750000  1.0
  Pb  Pb4  1  0.249999  0.249999  0.249999  1.0
