# generated using pymatgen
data_Ca6In2NF
_symmetry_space_group_name_H-M   'P 1'
_cell_length_a   7.04346485
_cell_length_b   7.04346382
_cell_length_c   7.04346427
_cell_angle_alpha   60.00001199
_cell_angle_beta   60.00002793
_cell_angle_gamma   59.99990841
_symmetry_Int_Tables_number   1
_chemical_formula_structural   Ca6In2NF
_chemical_formula_sum   'Ca6 In2 N1 F1'
_cell_volume   247.08352479
_cell_formula_units_Z   1
loop_
 _symmetry_equiv_pos_site_id
 _symmetry_equiv_pos_as_xyz
  1  'x, y, z'
loop_
 _atom_site_type_symbol
 _atom_site_label
 _atom_site_symmetry_multiplicity
 _atom_site_fract_x
 _atom_site_fract_y
 _atom_site_fract_z
 _atom_site_occupancy
  Ca  Ca1  1  0.239987  0.760013  0.760013  1.0
  Ca  Ca2  1  0.239987  0.760013  0.239987  1.0
  Ca  Ca3  1  0.760013  0.239987  0.760013  1.0
  Ca  Ca4  1  0.760013  0.760012  0.239988  1.0
  Ca  Ca5  1  0.239987  0.239988  0.760013  1.0
  Ca  Ca6  1  0.760012  0.239988  0.239987  1.0
  In  In7  1  0.250000  0.250000  0.250000  1.0
  In  In8  1  0.750000  0.750000  0.750000  1.0
  N  N9  1  0.000000  0.000000  0.000000  1.0
  F  F10  1  0.500000  0.500000  0.500000  1.0
