# generated using pymatgen
data_ReC2
_symmetry_space_group_name_H-M   'P 1'
_cell_length_a   2.87114788
_cell_length_b   2.87122698
_cell_length_c   8.15845998
_cell_angle_alpha   90.00000000
_cell_angle_beta   90.00000000
_cell_angle_gamma   119.99908867
_symmetry_Int_Tables_number   1
_chemical_formula_structural   ReC2
_chemical_formula_sum   'Re2 C4'
_cell_volume   58.24597175
_cell_formula_units_Z   2
loop_
 _symmetry_equiv_pos_site_id
 _symmetry_equiv_pos_as_xyz
  1  'x, y, z'
loop_
 _atom_site_type_symbol
 _atom_site_label
 _atom_site_symmetry_multiplicity
 _atom_site_fract_x
 _atom_site_fract_y
 _atom_site_fract_z
 _atom_site_occupancy
  Re  Re1  1  0.666671  0.333342  0.250000  1.0
  Re  Re2  1  0.333329  0.666658  0.750000  1.0
  C  C3  1  0.000011  0.000022  0.415324  1.0
  C  C4  1  0.999989  0.999978  0.584676  1.0
  C  C5  1  0.999989  0.999978  0.915324  1.0
  C  C6  1  0.000011  0.000022  0.084676  1.0
