# generated using pymatgen
data_BaO2
_symmetry_space_group_name_H-M   'P 1'
_cell_length_a   3.86593489
_cell_length_b   3.86593489
_cell_length_c   4.43247978
_cell_angle_alpha   115.85477790
_cell_angle_beta   115.85477800
_cell_angle_gamma   89.99999997
_symmetry_Int_Tables_number   1
_chemical_formula_structural   BaO2
_chemical_formula_sum   'Ba1 O2'
_cell_volume   52.14688945
_cell_formula_units_Z   1
loop_
 _symmetry_equiv_pos_site_id
 _symmetry_equiv_pos_as_xyz
  1  'x, y, z'
loop_
 _atom_site_type_symbol
 _atom_site_label
 _atom_site_symmetry_multiplicity
 _atom_site_fract_x
 _atom_site_fract_y
 _atom_site_fract_z
 _atom_site_occupancy
  Ba  Ba1  1  0.000000  0.000000  0.000000  1.0
  O  O2  1  0.392337  0.392337  0.784673  1.0
  O  O3  1  0.607663  0.607663  0.215327  1.0
