# generated using pymatgen
data_Cs2NaScF6
_symmetry_space_group_name_H-M   'P 1'
_cell_length_a   6.35893809
_cell_length_b   6.35893822
_cell_length_c   6.35893822
_cell_angle_alpha   59.99999944
_cell_angle_beta   59.99999915
_cell_angle_gamma   59.99999919
_symmetry_Int_Tables_number   1
_chemical_formula_structural   Cs2NaScF6
_chemical_formula_sum   'Cs2 Na1 Sc1 F6'
_cell_volume   181.81880662
_cell_formula_units_Z   1
loop_
 _symmetry_equiv_pos_site_id
 _symmetry_equiv_pos_as_xyz
  1  'x, y, z'
loop_
 _atom_site_type_symbol
 _atom_site_label
 _atom_site_symmetry_multiplicity
 _atom_site_fract_x
 _atom_site_fract_y
 _atom_site_fract_z
 _atom_site_occupancy
  Cs  Cs1  1  0.250000  0.250000  0.250000  1.0
  Cs  Cs2  1  0.750000  0.750000  0.750000  1.0
  Na  Na3  1  0.500000  0.500000  0.500000  1.0
  Sc  Sc4  1  0.000000  0.000000  0.000000  1.0
  F  F5  1  0.228556  0.771444  0.228556  1.0
  F  F6  1  0.771444  0.771444  0.228556  1.0
  F  F7  1  0.771444  0.228556  0.771444  1.0
  F  F8  1  0.771444  0.228556  0.228556  1.0
  F  F9  1  0.228556  0.771444  0.771444  1.0
  F  F10  1  0.228556  0.228556  0.771444  1.0
