# generated using pymatgen
data_Na3C
_symmetry_space_group_name_H-M   'P 1'
_cell_length_a   4.74099484
_cell_length_b   4.74099484
_cell_length_c   4.74099484
_cell_angle_alpha   121.15116508
_cell_angle_beta   121.15116508
_cell_angle_gamma   88.01742613
_symmetry_Int_Tables_number   1
_chemical_formula_structural   Na3C
_chemical_formula_sum   'Na3 C1'
_cell_volume   73.99255987
_cell_formula_units_Z   1
loop_
 _symmetry_equiv_pos_site_id
 _symmetry_equiv_pos_as_xyz
  1  'x, y, z'
loop_
 _atom_site_type_symbol
 _atom_site_label
 _atom_site_symmetry_multiplicity
 _atom_site_fract_x
 _atom_site_fract_y
 _atom_site_fract_z
 _atom_site_occupancy
  Na  Na1  1  0.749999  0.250000  0.500000  1.0
  Na  Na2  1  0.250000  0.749999  0.500000  1.0
  Na  Na3  1  0.500001  0.500001  0.000000  1.0
  C  C4  1  0.000000  0.000000  0.000000  1.0
