# generated using pymatgen
data_MgSnF6
_symmetry_space_group_name_H-M   'P 1'
_cell_length_a   5.56924473
_cell_length_b   5.56924413
_cell_length_c   5.56924378
_cell_angle_alpha   58.11871817
_cell_angle_beta   58.11871677
_cell_angle_gamma   58.11872178
_symmetry_Int_Tables_number   1
_chemical_formula_structural   MgSnF6
_chemical_formula_sum   'Mg1 Sn1 F6'
_cell_volume   116.87677614
_cell_formula_units_Z   1
loop_
 _symmetry_equiv_pos_site_id
 _symmetry_equiv_pos_as_xyz
  1  'x, y, z'
loop_
 _atom_site_type_symbol
 _atom_site_label
 _atom_site_symmetry_multiplicity
 _atom_site_fract_x
 _atom_site_fract_y
 _atom_site_fract_z
 _atom_site_occupancy
  Mg  Mg1  1  0.500000  0.500000  0.500000  1.0
  Sn  Sn2  1  0.000000  0.000000  0.000000  1.0
  F  F3  1  0.339182  0.160031  0.751904  1.0
  F  F4  1  0.160031  0.751904  0.339182  1.0
  F  F5  1  0.248096  0.660818  0.839969  1.0
  F  F6  1  0.839969  0.248096  0.660818  1.0
  F  F7  1  0.660818  0.839969  0.248096  1.0
  F  F8  1  0.751904  0.339182  0.160031  1.0
