# generated using pymatgen
data_PaO
_symmetry_space_group_name_H-M   'P 1'
_cell_length_a   3.49162561
_cell_length_b   3.49162560
_cell_length_c   3.49162561
_cell_angle_alpha   60.00000004
_cell_angle_beta   60.00000008
_cell_angle_gamma   60.00000007
_symmetry_Int_Tables_number   1
_chemical_formula_structural   PaO
_chemical_formula_sum   'Pa1 O1'
_cell_volume   30.10010512
_cell_formula_units_Z   1
loop_
 _symmetry_equiv_pos_site_id
 _symmetry_equiv_pos_as_xyz
  1  'x, y, z'
loop_
 _atom_site_type_symbol
 _atom_site_label
 _atom_site_symmetry_multiplicity
 _atom_site_fract_x
 _atom_site_fract_y
 _atom_site_fract_z
 _atom_site_occupancy
  Pa  Pa1  1  0.500000  0.500000  0.500000  1.0
  O  O2  1  0.000000  0.000000  0.000000  1.0
