# generated using pymatgen
data_CaSbF6
_symmetry_space_group_name_H-M   'P 1'
_cell_length_a   6.01639473
_cell_length_b   6.01639399
_cell_length_c   6.01639358
_cell_angle_alpha   57.89432939
_cell_angle_beta   57.89432770
_cell_angle_gamma   57.89433337
_symmetry_Int_Tables_number   1
_chemical_formula_structural   CaSbF6
_chemical_formula_sum   'Ca1 Sb1 F6'
_cell_volume   146.54825267
_cell_formula_units_Z   1
loop_
 _symmetry_equiv_pos_site_id
 _symmetry_equiv_pos_as_xyz
  1  'x, y, z'
loop_
 _atom_site_type_symbol
 _atom_site_label
 _atom_site_symmetry_multiplicity
 _atom_site_fract_x
 _atom_site_fract_y
 _atom_site_fract_z
 _atom_site_occupancy
  Ca  Ca1  1  0.500000  0.500000  0.500000  1.0
  Sb  Sb2  1  0.000000  0.000000  0.000000  1.0
  F  F3  1  0.333624  0.137718  0.765973  1.0
  F  F4  1  0.137718  0.765973  0.333624  1.0
  F  F5  1  0.234027  0.666376  0.862282  1.0
  F  F6  1  0.862282  0.234027  0.666376  1.0
  F  F7  1  0.666376  0.862282  0.234027  1.0
  F  F8  1  0.765973  0.333624  0.137718  1.0
