# generated using pymatgen
data_LiAl
_symmetry_space_group_name_H-M   'P 1'
_cell_length_a   4.48283501
_cell_length_b   4.48283501
_cell_length_c   4.50064289
_cell_angle_alpha   119.86919814
_cell_angle_beta   119.86919821
_cell_angle_gamma   89.99999994
_symmetry_Int_Tables_number   1
_chemical_formula_structural   LiAl
_chemical_formula_sum   'Li2 Al2'
_cell_volume   64.20566093
_cell_formula_units_Z   2
loop_
 _symmetry_equiv_pos_site_id
 _symmetry_equiv_pos_as_xyz
  1  'x, y, z'
loop_
 _atom_site_type_symbol
 _atom_site_label
 _atom_site_symmetry_multiplicity
 _atom_site_fract_x
 _atom_site_fract_y
 _atom_site_fract_z
 _atom_site_occupancy
  Li  Li1  1  0.375000  0.625000  0.750000  1.0
  Li  Li2  1  0.625000  0.375000  0.250000  1.0
  Al  Al3  1  0.875000  0.125000  0.750000  1.0
  Al  Al4  1  0.125000  0.875000  0.250000  1.0
