# generated using pymatgen
data_Cu2B2C
_symmetry_space_group_name_H-M   'P 1'
_cell_length_a   3.77854859
_cell_length_b   3.78060442
_cell_length_c   5.25764079
_cell_angle_alpha   110.22695009
_cell_angle_beta   110.34089295
_cell_angle_gamma   89.73625123
_symmetry_Int_Tables_number   1
_chemical_formula_structural   Cu2B2C
_chemical_formula_sum   'Cu2 B2 C1'
_cell_volume   65.50728967
_cell_formula_units_Z   1
loop_
 _symmetry_equiv_pos_site_id
 _symmetry_equiv_pos_as_xyz
  1  'x, y, z'
loop_
 _atom_site_type_symbol
 _atom_site_label
 _atom_site_symmetry_multiplicity
 _atom_site_fract_x
 _atom_site_fract_y
 _atom_site_fract_z
 _atom_site_occupancy
  Cu  Cu1  1  0.253793  0.748474  0.498173  1.0
  Cu  Cu2  1  0.752574  0.250396  0.498796  1.0
  B  B3  1  0.160709  0.157591  0.307231  1.0
  B  B4  1  0.845901  0.841675  0.689987  1.0
  C  C5  1  0.003231  0.000368  0.997957  1.0
