# generated using pymatgen
data_TaZnRu2
_symmetry_space_group_name_H-M   'P 1'
_cell_length_a   4.38559358
_cell_length_b   4.38559358
_cell_length_c   4.38559358
_cell_angle_alpha   59.96660208
_cell_angle_beta   59.96660208
_cell_angle_gamma   59.96660208
_symmetry_Int_Tables_number   1
_chemical_formula_structural   TaZnRu2
_chemical_formula_sum   'Ta1 Zn1 Ru2'
_cell_volume   59.59929217
_cell_formula_units_Z   1
loop_
 _symmetry_equiv_pos_site_id
 _symmetry_equiv_pos_as_xyz
  1  'x, y, z'
loop_
 _atom_site_type_symbol
 _atom_site_label
 _atom_site_symmetry_multiplicity
 _atom_site_fract_x
 _atom_site_fract_y
 _atom_site_fract_z
 _atom_site_occupancy
  Ta  Ta1  1  0.249999  0.249999  0.249999  1.0
  Zn  Zn2  1  0.750002  0.750002  0.750002  1.0
  Ru  Ru3  1  0.000007  0.000007  0.000007  1.0
  Ru  Ru4  1  0.499996  0.499996  0.499996  1.0
