# generated using pymatgen
data_Tm2ZnHg
_symmetry_space_group_name_H-M   'P 1'
_cell_length_a   5.10578283
_cell_length_b   5.10578283
_cell_length_c   5.10578283
_cell_angle_alpha   60.00416856
_cell_angle_beta   60.00416856
_cell_angle_gamma   60.00416856
_symmetry_Int_Tables_number   1
_chemical_formula_structural   Tm2ZnHg
_chemical_formula_sum   'Tm2 Zn1 Hg1'
_cell_volume   94.12674934
_cell_formula_units_Z   1
loop_
 _symmetry_equiv_pos_site_id
 _symmetry_equiv_pos_as_xyz
  1  'x, y, z'
loop_
 _atom_site_type_symbol
 _atom_site_label
 _atom_site_symmetry_multiplicity
 _atom_site_fract_x
 _atom_site_fract_y
 _atom_site_fract_z
 _atom_site_occupancy
  Tm  Tm1  1  0.000005  0.000005  0.000005  1.0
  Tm  Tm2  1  0.499993  0.499993  0.499993  1.0
  Zn  Zn3  1  0.749998  0.749998  0.749998  1.0
  Hg  Hg4  1  0.250005  0.250005  0.250005  1.0
