# generated using pymatgen
data_ZnFeF6
_symmetry_space_group_name_H-M   'P 1'
_cell_length_a   5.43084514
_cell_length_b   5.43084457
_cell_length_c   5.43084426
_cell_angle_alpha   58.30281685
_cell_angle_beta   58.30281545
_cell_angle_gamma   58.30282041
_symmetry_Int_Tables_number   1
_chemical_formula_structural   ZnFeF6
_chemical_formula_sum   'Zn1 Fe1 F6'
_cell_volume   108.86055957
_cell_formula_units_Z   1
loop_
 _symmetry_equiv_pos_site_id
 _symmetry_equiv_pos_as_xyz
  1  'x, y, z'
loop_
 _atom_site_type_symbol
 _atom_site_label
 _atom_site_symmetry_multiplicity
 _atom_site_fract_x
 _atom_site_fract_y
 _atom_site_fract_z
 _atom_site_occupancy
  Zn  Zn1  1  0.500000  0.500000  0.500000  1.0
  Fe  Fe2  1  0.000000  0.000000  0.000000  1.0
  F  F3  1  0.330549  0.157295  0.756993  1.0
  F  F4  1  0.157295  0.756993  0.330549  1.0
  F  F5  1  0.243007  0.669451  0.842705  1.0
  F  F6  1  0.842705  0.243007  0.669451  1.0
  F  F7  1  0.669451  0.842705  0.243007  1.0
  F  F8  1  0.756993  0.330549  0.157295  1.0
