# generated using pymatgen
data_Sm
_symmetry_space_group_name_H-M   'P 1'
_cell_length_a   3.64747746
_cell_length_b   3.64747746
_cell_length_c   3.64470447
_cell_angle_alpha   120.02517121
_cell_angle_beta   120.02517119
_cell_angle_gamma   90.00000005
_symmetry_Int_Tables_number   1
_chemical_formula_structural   Sm
_chemical_formula_sum   Sm1
_cell_volume   34.26113560
_cell_formula_units_Z   1
loop_
 _symmetry_equiv_pos_site_id
 _symmetry_equiv_pos_as_xyz
  1  'x, y, z'
loop_
 _atom_site_type_symbol
 _atom_site_label
 _atom_site_symmetry_multiplicity
 _atom_site_fract_x
 _atom_site_fract_y
 _atom_site_fract_z
 _atom_site_occupancy
  Sm  Sm1  1  0.000000  0.000000  0.000000  1.0
