# generated using pymatgen
data_NaEr3
_symmetry_space_group_name_H-M   'P 1'
_cell_length_a   5.58069699
_cell_length_b   5.58062206
_cell_length_c   5.58052712
_cell_angle_alpha   59.99994652
_cell_angle_beta   59.99980873
_cell_angle_gamma   60.00096784
_symmetry_Int_Tables_number   1
_chemical_formula_structural   NaEr3
_chemical_formula_sum   'Na1 Er3'
_cell_volume   122.89484116
_cell_formula_units_Z   1
loop_
 _symmetry_equiv_pos_site_id
 _symmetry_equiv_pos_as_xyz
  1  'x, y, z'
loop_
 _atom_site_type_symbol
 _atom_site_label
 _atom_site_symmetry_multiplicity
 _atom_site_fract_x
 _atom_site_fract_y
 _atom_site_fract_z
 _atom_site_occupancy
  Na  Na1  1  0.749992  0.750002  0.749993  1.0
  Er  Er2  1  0.000005  0.000048  0.999923  1.0
  Er  Er3  1  0.499935  0.499980  0.500033  1.0
  Er  Er4  1  0.250067  0.249970  0.250051  1.0
