# generated using pymatgen
data_Li2CuGe
_symmetry_space_group_name_H-M   'P 1'
_cell_length_a   4.21642492
_cell_length_b   15.00373263
_cell_length_c   7.18961385
_cell_angle_alpha   16.58913885
_cell_angle_beta   54.09376584
_cell_angle_gamma   55.80230681
_symmetry_Int_Tables_number   1
_chemical_formula_structural   Li2CuGe
_chemical_formula_sum   'Li4 Cu2 Ge2'
_cell_volume   105.18133811
_cell_formula_units_Z   2
loop_
 _symmetry_equiv_pos_site_id
 _symmetry_equiv_pos_as_xyz
  1  'x, y, z'
loop_
 _atom_site_type_symbol
 _atom_site_label
 _atom_site_symmetry_multiplicity
 _atom_site_fract_x
 _atom_site_fract_y
 _atom_site_fract_z
 _atom_site_occupancy
  Li  Li1  1  0.812497  0.907622  0.372259  1.0
  Li  Li2  1  0.812497  0.342378  0.002747  1.0
  Li  Li3  1  0.062405  0.410665  0.116266  1.0
  Li  Li4  1  0.062405  0.839335  0.758925  1.0
  Cu  Cu5  1  0.563789  0.397488  0.641235  1.0
  Cu  Cu6  1  0.563789  0.852512  0.231187  1.0
  Ge  Ge7  1  0.311309  0.353303  0.482085  1.0
  Ge  Ge8  1  0.311309  0.896697  0.895297  1.0
