# generated using pymatgen
data_MnZnF6
_symmetry_space_group_name_H-M   'P 1'
_cell_length_a   5.40106571
_cell_length_b   5.40106517
_cell_length_c   5.40106485
_cell_angle_alpha   58.29971824
_cell_angle_beta   58.29971677
_cell_angle_gamma   58.29972154
_symmetry_Int_Tables_number   1
_chemical_formula_structural   MnZnF6
_chemical_formula_sum   'Mn1 Zn1 F6'
_cell_volume   107.07160767
_cell_formula_units_Z   1
loop_
 _symmetry_equiv_pos_site_id
 _symmetry_equiv_pos_as_xyz
  1  'x, y, z'
loop_
 _atom_site_type_symbol
 _atom_site_label
 _atom_site_symmetry_multiplicity
 _atom_site_fract_x
 _atom_site_fract_y
 _atom_site_fract_z
 _atom_site_occupancy
  Mn  Mn1  1  0.000000  0.000000  0.000000  1.0
  Zn  Zn2  1  0.500000  0.500000  0.500000  1.0
  F  F3  1  0.327253  0.146874  0.764278  1.0
  F  F4  1  0.146874  0.764278  0.327253  1.0
  F  F5  1  0.235722  0.672747  0.853126  1.0
  F  F6  1  0.853126  0.235722  0.672747  1.0
  F  F7  1  0.672747  0.853126  0.235722  1.0
  F  F8  1  0.764278  0.327253  0.146874  1.0
