# generated using pymatgen
data_Li2O
_symmetry_space_group_name_H-M   'P 1'
_cell_length_a   3.29107179
_cell_length_b   3.29107190
_cell_length_c   3.29107206
_cell_angle_alpha   60.12971043
_cell_angle_beta   60.12970952
_cell_angle_gamma   60.12970313
_symmetry_Int_Tables_number   1
_chemical_formula_structural   Li2O
_chemical_formula_sum   'Li2 O1'
_cell_volume   25.27966839
_cell_formula_units_Z   1
loop_
 _symmetry_equiv_pos_site_id
 _symmetry_equiv_pos_as_xyz
  1  'x, y, z'
loop_
 _atom_site_type_symbol
 _atom_site_label
 _atom_site_symmetry_multiplicity
 _atom_site_fract_x
 _atom_site_fract_y
 _atom_site_fract_z
 _atom_site_occupancy
  Li  Li1  1  0.750178  0.750178  0.750178  1.0
  Li  Li2  1  0.249822  0.249822  0.249822  1.0
  O  O3  1  0.000000  0.000000  0.000000  1.0
