# generated using pymatgen
data_Sm2AgIr
_symmetry_space_group_name_H-M   'P 1'
_cell_length_a   5.08386093
_cell_length_b   5.08386093
_cell_length_c   5.08386093
_cell_angle_alpha   60.00000000
_cell_angle_beta   60.00000000
_cell_angle_gamma   60.00000000
_symmetry_Int_Tables_number   1
_chemical_formula_structural   Sm2AgIr
_chemical_formula_sum   'Sm2 Ag1 Ir1'
_cell_volume   92.91075467
_cell_formula_units_Z   1
loop_
 _symmetry_equiv_pos_site_id
 _symmetry_equiv_pos_as_xyz
  1  'x, y, z'
loop_
 _atom_site_type_symbol
 _atom_site_label
 _atom_site_symmetry_multiplicity
 _atom_site_fract_x
 _atom_site_fract_y
 _atom_site_fract_z
 _atom_site_occupancy
  Sm  Sm1  1  0.000000  0.000000  0.000000  1.0
  Sm  Sm2  1  0.499999  0.499999  0.499999  1.0
  Ag  Ag3  1  0.250000  0.250000  0.250000  1.0
  Ir  Ir4  1  0.750001  0.750001  0.750001  1.0
