# generated using pymatgen
data_CeCdNi4
_symmetry_space_group_name_H-M   'P 1'
_cell_length_a   4.99915384
_cell_length_b   4.99915384
_cell_length_c   4.99915384
_cell_angle_alpha   60.00000002
_cell_angle_beta   59.99999998
_cell_angle_gamma   59.99999998
_symmetry_Int_Tables_number   1
_chemical_formula_structural   CeCdNi4
_chemical_formula_sum   'Ce1 Cd1 Ni4'
_cell_volume   88.34348082
_cell_formula_units_Z   1
loop_
 _symmetry_equiv_pos_site_id
 _symmetry_equiv_pos_as_xyz
  1  'x, y, z'
loop_
 _atom_site_type_symbol
 _atom_site_label
 _atom_site_symmetry_multiplicity
 _atom_site_fract_x
 _atom_site_fract_y
 _atom_site_fract_z
 _atom_site_occupancy
  Ce  Ce1  1  0.250000  0.250000  0.250000  1.0
  Cd  Cd2  1  0.000000  0.000000  0.000000  1.0
  Ni  Ni3  1  0.122012  0.625996  0.625996  1.0
  Ni  Ni4  1  0.625996  0.625996  0.625996  1.0
  Ni  Ni5  1  0.625996  0.625996  0.122012  1.0
  Ni  Ni6  1  0.625996  0.122012  0.625996  1.0
