# generated using pymatgen
data_MgWF6
_symmetry_space_group_name_H-M   'P 1'
_cell_length_a   5.66315421
_cell_length_b   5.66315360
_cell_length_c   5.66315325
_cell_angle_alpha   56.91228354
_cell_angle_beta   56.91228205
_cell_angle_gamma   56.91228699
_symmetry_Int_Tables_number   1
_chemical_formula_structural   MgWF6
_chemical_formula_sum   'Mg1 W1 F6'
_cell_volume   119.28062191
_cell_formula_units_Z   1
loop_
 _symmetry_equiv_pos_site_id
 _symmetry_equiv_pos_as_xyz
  1  'x, y, z'
loop_
 _atom_site_type_symbol
 _atom_site_label
 _atom_site_symmetry_multiplicity
 _atom_site_fract_x
 _atom_site_fract_y
 _atom_site_fract_z
 _atom_site_occupancy
  Mg  Mg1  1  0.500000  0.500000  0.500000  1.0
  W  W2  1  0.000000  0.000000  0.000000  1.0
  F  F3  1  0.339237  0.161653  0.754445  1.0
  F  F4  1  0.161653  0.754445  0.339237  1.0
  F  F5  1  0.245555  0.660763  0.838347  1.0
  F  F6  1  0.838347  0.245555  0.660763  1.0
  F  F7  1  0.660763  0.838347  0.245555  1.0
  F  F8  1  0.754445  0.339237  0.161653  1.0
