# generated using pymatgen
data_TbPt2
_symmetry_space_group_name_H-M   'P 1'
_cell_length_a   5.45025984
_cell_length_b   5.45025984
_cell_length_c   5.45025984
_cell_angle_alpha   60.00000002
_cell_angle_beta   60.00000001
_cell_angle_gamma   60.00000005
_symmetry_Int_Tables_number   1
_chemical_formula_structural   TbPt2
_chemical_formula_sum   'Tb2 Pt4'
_cell_volume   114.48184645
_cell_formula_units_Z   2
loop_
 _symmetry_equiv_pos_site_id
 _symmetry_equiv_pos_as_xyz
  1  'x, y, z'
loop_
 _atom_site_type_symbol
 _atom_site_label
 _atom_site_symmetry_multiplicity
 _atom_site_fract_x
 _atom_site_fract_y
 _atom_site_fract_z
 _atom_site_occupancy
  Tb  Tb1  1  0.125000  0.125000  0.125000  1.0
  Tb  Tb2  1  0.875000  0.875000  0.875000  1.0
  Pt  Pt3  1  0.000000  0.500000  0.500000  1.0
  Pt  Pt4  1  0.500000  0.000000  0.500000  1.0
  Pt  Pt5  1  0.500000  0.500000  0.000000  1.0
  Pt  Pt6  1  0.500000  0.500000  0.500000  1.0
