# generated using pymatgen
data_ZrInNi4
_symmetry_space_group_name_H-M   'P 1'
_cell_length_a   4.85746477
_cell_length_b   4.85746492
_cell_length_c   4.85746531
_cell_angle_alpha   60.00000423
_cell_angle_beta   60.00000323
_cell_angle_gamma   59.99999918
_symmetry_Int_Tables_number   1
_chemical_formula_structural   ZrInNi4
_chemical_formula_sum   'Zr1 In1 Ni4'
_cell_volume   81.04273033
_cell_formula_units_Z   1
loop_
 _symmetry_equiv_pos_site_id
 _symmetry_equiv_pos_as_xyz
  1  'x, y, z'
loop_
 _atom_site_type_symbol
 _atom_site_label
 _atom_site_symmetry_multiplicity
 _atom_site_fract_x
 _atom_site_fract_y
 _atom_site_fract_z
 _atom_site_occupancy
  Zr  Zr1  1  0.000000  0.000000  0.000000  1.0
  In  In2  1  0.250000  0.250000  0.250000  1.0
  Ni  Ni3  1  0.624963  0.624963  0.125112  1.0
  Ni  Ni4  1  0.624963  0.624963  0.624963  1.0
  Ni  Ni5  1  0.125112  0.624963  0.624963  1.0
  Ni  Ni6  1  0.624963  0.125112  0.624963  1.0
