# generated using pymatgen
data_AlCoF5
_symmetry_space_group_name_H-M   'P 1'
_cell_length_a   3.56558728
_cell_length_b   5.22181705
_cell_length_c   5.22181676
_cell_angle_alpha   74.39351070
_cell_angle_beta   70.03705085
_cell_angle_gamma   70.03703997
_symmetry_Int_Tables_number   1
_chemical_formula_structural   AlCoF5
_chemical_formula_sum   'Al1 Co1 F5'
_cell_volume   84.60269361
_cell_formula_units_Z   1
loop_
 _symmetry_equiv_pos_site_id
 _symmetry_equiv_pos_as_xyz
  1  'x, y, z'
loop_
 _atom_site_type_symbol
 _atom_site_label
 _atom_site_symmetry_multiplicity
 _atom_site_fract_x
 _atom_site_fract_y
 _atom_site_fract_z
 _atom_site_occupancy
  Al  Al1  1  0.500000  0.500000  0.500000  1.0
  Co  Co2  1  0.000000  0.000000  0.000000  1.0
  F  F3  1  0.500000  0.794011  0.205989  1.0
  F  F4  1  0.500000  0.205989  0.794011  1.0
  F  F5  1  0.740723  0.259277  0.259277  1.0
  F  F6  1  0.259277  0.740723  0.740723  1.0
  F  F7  1  0.000000  0.500000  0.500000  1.0
