# generated using pymatgen
data_ZrB
_symmetry_space_group_name_H-M   'P 1'
_cell_length_a   3.47376184
_cell_length_b   3.47376184
_cell_length_c   3.47376184
_cell_angle_alpha   60.00000005
_cell_angle_beta   60.00000000
_cell_angle_gamma   59.99999999
_symmetry_Int_Tables_number   1
_chemical_formula_structural   ZrB
_chemical_formula_sum   'Zr1 B1'
_cell_volume   29.64047250
_cell_formula_units_Z   1
loop_
 _symmetry_equiv_pos_site_id
 _symmetry_equiv_pos_as_xyz
  1  'x, y, z'
loop_
 _atom_site_type_symbol
 _atom_site_label
 _atom_site_symmetry_multiplicity
 _atom_site_fract_x
 _atom_site_fract_y
 _atom_site_fract_z
 _atom_site_occupancy
  Zr  Zr1  1  0.500000  0.500000  0.500000  1.0
  B  B2  1  0.000000  0.000000  0.000000  1.0
