# generated using pymatgen
data_Ga2CoRu
_symmetry_space_group_name_H-M   'P 1'
_cell_length_a   4.19257801
_cell_length_b   4.19204442
_cell_length_c   4.19234905
_cell_angle_alpha   60.06260842
_cell_angle_beta   60.05417863
_cell_angle_gamma   60.05044994
_symmetry_Int_Tables_number   1
_chemical_formula_structural   Ga2CoRu
_chemical_formula_sum   'Ga2 Co1 Ru1'
_cell_volume   52.16723477
_cell_formula_units_Z   1
loop_
 _symmetry_equiv_pos_site_id
 _symmetry_equiv_pos_as_xyz
  1  'x, y, z'
loop_
 _atom_site_type_symbol
 _atom_site_label
 _atom_site_symmetry_multiplicity
 _atom_site_fract_x
 _atom_site_fract_y
 _atom_site_fract_z
 _atom_site_occupancy
  Ga  Ga1  1  0.999922  0.000014  0.999963  1.0
  Ga  Ga2  1  0.500062  0.499995  0.500032  1.0
  Co  Co3  1  0.249964  0.249985  0.250014  1.0
  Ru  Ru4  1  0.750052  0.750005  0.749991  1.0
