# generated using pymatgen
data_RbCa3
_symmetry_space_group_name_H-M   'P 1'
_cell_length_a   7.15040524
_cell_length_b   7.15040524
_cell_length_c   7.15040524
_cell_angle_alpha   131.89158377
_cell_angle_beta   131.89158377
_cell_angle_gamma   70.40031252
_symmetry_Int_Tables_number   1
_chemical_formula_structural   RbCa3
_chemical_formula_sum   'Rb1 Ca3'
_cell_volume   198.52728318
_cell_formula_units_Z   1
loop_
 _symmetry_equiv_pos_site_id
 _symmetry_equiv_pos_as_xyz
  1  'x, y, z'
loop_
 _atom_site_type_symbol
 _atom_site_label
 _atom_site_symmetry_multiplicity
 _atom_site_fract_x
 _atom_site_fract_y
 _atom_site_fract_z
 _atom_site_occupancy
  Rb  Rb1  1  0.000000  0.000000  0.000000  1.0
  Ca  Ca2  1  0.749999  0.250000  0.499999  1.0
  Ca  Ca3  1  0.250000  0.749999  0.499999  1.0
  Ca  Ca4  1  0.500000  0.500000  0.000000  1.0
