# generated using pymatgen
data_Zn(CrSe2)2
_symmetry_space_group_name_H-M   'P 1'
_cell_length_a   7.49849496
_cell_length_b   7.49849495
_cell_length_c   7.49849495
_cell_angle_alpha   59.99999997
_cell_angle_beta   59.99999998
_cell_angle_gamma   59.99999998
_symmetry_Int_Tables_number   1
_chemical_formula_structural   Zn(CrSe2)2
_chemical_formula_sum   'Zn2 Cr4 Se8'
_cell_volume   298.13112060
_cell_formula_units_Z   2
loop_
 _symmetry_equiv_pos_site_id
 _symmetry_equiv_pos_as_xyz
  1  'x, y, z'
loop_
 _atom_site_type_symbol
 _atom_site_label
 _atom_site_symmetry_multiplicity
 _atom_site_fract_x
 _atom_site_fract_y
 _atom_site_fract_z
 _atom_site_occupancy
  Zn  Zn1  1  0.125000  0.125000  0.125000  1.0
  Zn  Zn2  1  0.875000  0.875000  0.875000  1.0
  Cr  Cr3  1  0.500000  0.000000  0.500000  1.0
  Cr  Cr4  1  0.000000  0.500000  0.500000  1.0
  Cr  Cr5  1  0.500000  0.500000  0.500000  1.0
  Cr  Cr6  1  0.500000  0.500000  0.000000  1.0
  Se  Se7  1  0.260501  0.260501  0.260501  1.0
  Se  Se8  1  0.739499  0.739499  0.281503  1.0
  Se  Se9  1  0.281503  0.739499  0.739499  1.0
  Se  Se10  1  0.739499  0.281503  0.739499  1.0
  Se  Se11  1  0.718497  0.260501  0.260501  1.0
  Se  Se12  1  0.260501  0.718497  0.260501  1.0
  Se  Se13  1  0.260501  0.260501  0.718497  1.0
  Se  Se14  1  0.739499  0.739499  0.739499  1.0
