# generated using pymatgen
data_Ag2O3
_symmetry_space_group_name_H-M   'P 1'
_cell_length_a   5.10660848
_cell_length_b   5.10660848
_cell_length_c   5.10660848
_cell_angle_alpha   90.00000000
_cell_angle_beta   90.00000000
_cell_angle_gamma   90.00000000
_symmetry_Int_Tables_number   1
_chemical_formula_structural   Ag2O3
_chemical_formula_sum   'Ag4 O6'
_cell_volume   133.16732816
_cell_formula_units_Z   2
loop_
 _symmetry_equiv_pos_site_id
 _symmetry_equiv_pos_as_xyz
  1  'x, y, z'
loop_
 _atom_site_type_symbol
 _atom_site_label
 _atom_site_symmetry_multiplicity
 _atom_site_fract_x
 _atom_site_fract_y
 _atom_site_fract_z
 _atom_site_occupancy
  Ag  Ag1  1  0.000000  0.500000  0.500000  1.0
  Ag  Ag2  1  0.500000  0.500000  0.000000  1.0
  Ag  Ag3  1  0.500000  0.000000  0.500000  1.0
  Ag  Ag4  1  0.000000  0.000000  0.000000  1.0
  O  O5  1  0.750000  0.750000  0.250000  1.0
  O  O6  1  0.750000  0.250000  0.750000  1.0
  O  O7  1  0.250000  0.750000  0.250000  1.0
  O  O8  1  0.250000  0.250000  0.750000  1.0
  O  O9  1  0.250000  0.750000  0.750000  1.0
  O  O10  1  0.750000  0.250000  0.250000  1.0
