# generated using pymatgen
data_MgCo
_symmetry_space_group_name_H-M   'P 1'
_cell_length_a   8.02826060
_cell_length_b   8.02826060
_cell_length_c   8.02826060
_cell_angle_alpha   120.00000000
_cell_angle_beta   90.00000000
_cell_angle_gamma   120.00000000
_symmetry_Int_Tables_number   1
_chemical_formula_structural   MgCo
_chemical_formula_sum   'Mg12 Co12'
_cell_volume   365.88902795
_cell_formula_units_Z   12
loop_
 _symmetry_equiv_pos_site_id
 _symmetry_equiv_pos_as_xyz
  1  'x, y, z'
loop_
 _atom_site_type_symbol
 _atom_site_label
 _atom_site_symmetry_multiplicity
 _atom_site_fract_x
 _atom_site_fract_y
 _atom_site_fract_z
 _atom_site_occupancy
  Mg  Mg1  1  0.548734  0.500000  0.048734  1.0
  Mg  Mg2  1  0.548734  0.097468  0.048734  1.0
  Mg  Mg3  1  0.951266  0.500000  0.048735  1.0
  Mg  Mg4  1  0.798735  0.000000  0.201266  1.0
  Mg  Mg5  1  0.201266  0.000000  0.201266  1.0
  Mg  Mg6  1  0.201266  0.402532  0.201266  1.0
  Mg  Mg7  1  0.951266  0.500000  0.451265  1.0
  Mg  Mg8  1  0.951266  0.902531  0.451265  1.0
  Mg  Mg9  1  0.548734  0.500000  0.451266  1.0
  Mg  Mg10  1  0.798733  0.000000  0.798733  1.0
  Mg  Mg11  1  0.201266  0.000000  0.798735  1.0
  Mg  Mg12  1  0.798735  0.597469  0.798735  1.0
  Co  Co13  1  0.375001  0.750001  0.125001  1.0
  Co  Co14  1  0.577456  0.154913  0.422543  1.0
  Co  Co15  1  0.267631  0.845087  0.422543  1.0
  Co  Co16  1  0.577456  0.845087  0.422543  1.0
  Co  Co17  1  0.172543  0.345087  0.517630  1.0
  Co  Co18  1  0.375000  0.250000  0.625000  1.0
  Co  Co19  1  0.875000  0.250000  0.625000  1.0
  Co  Co20  1  0.375001  0.750001  0.625000  1.0
  Co  Co21  1  0.577457  0.154913  0.732370  1.0
  Co  Co22  1  0.172543  0.345087  0.827456  1.0
  Co  Co23  1  0.172543  0.654912  0.827456  1.0
  Co  Co24  1  0.482369  0.654912  0.827456  1.0
