# generated using pymatgen
data_Ho2CdOs
_symmetry_space_group_name_H-M   'P 1'
_cell_length_a   5.00049374
_cell_length_b   5.00046585
_cell_length_c   5.00046734
_cell_angle_alpha   60.00022664
_cell_angle_beta   60.00006876
_cell_angle_gamma   60.00008612
_symmetry_Int_Tables_number   1
_chemical_formula_structural   Ho2CdOs
_chemical_formula_sum   'Ho2 Cd1 Os1'
_cell_volume   88.41382977
_cell_formula_units_Z   1
loop_
 _symmetry_equiv_pos_site_id
 _symmetry_equiv_pos_as_xyz
  1  'x, y, z'
loop_
 _atom_site_type_symbol
 _atom_site_label
 _atom_site_symmetry_multiplicity
 _atom_site_fract_x
 _atom_site_fract_y
 _atom_site_fract_z
 _atom_site_occupancy
  Ho  Ho1  1  0.000000  0.000000  0.999999  1.0
  Ho  Ho2  1  0.500000  0.500000  0.500000  1.0
  Cd  Cd3  1  0.249999  0.250000  0.249998  1.0
  Os  Os4  1  0.750000  0.749999  0.750001  1.0
