# generated using pymatgen
data_Ba(MgSi)2
_symmetry_space_group_name_H-M   'P 1'
_cell_length_a   4.66797212
_cell_length_b   4.66797212
_cell_length_c   6.43914902
_cell_angle_alpha   111.25184748
_cell_angle_beta   111.25184756
_cell_angle_gamma   90.00000003
_symmetry_Int_Tables_number   1
_chemical_formula_structural   Ba(MgSi)2
_chemical_formula_sum   'Ba1 Mg2 Si2'
_cell_volume   120.47240826
_cell_formula_units_Z   1
loop_
 _symmetry_equiv_pos_site_id
 _symmetry_equiv_pos_as_xyz
  1  'x, y, z'
loop_
 _atom_site_type_symbol
 _atom_site_label
 _atom_site_symmetry_multiplicity
 _atom_site_fract_x
 _atom_site_fract_y
 _atom_site_fract_z
 _atom_site_occupancy
  Ba  Ba1  1  0.000000  0.000000  0.000000  1.0
  Mg  Mg2  1  0.750000  0.250000  0.500000  1.0
  Mg  Mg3  1  0.250000  0.750000  0.500000  1.0
  Si  Si4  1  0.612252  0.612252  0.224504  1.0
  Si  Si5  1  0.387748  0.387748  0.775496  1.0
