# generated using pymatgen
data_MnNiP
_symmetry_space_group_name_H-M   'P 1'
_cell_length_a   5.85418052
_cell_length_b   5.85384120
_cell_length_c   3.46400012
_cell_angle_alpha   90.00000000
_cell_angle_beta   90.00000000
_cell_angle_gamma   120.00190588
_symmetry_Int_Tables_number   1
_chemical_formula_structural   MnNiP
_chemical_formula_sum   'Mn3 Ni3 P3'
_cell_volume   102.80334274
_cell_formula_units_Z   3
loop_
 _symmetry_equiv_pos_site_id
 _symmetry_equiv_pos_as_xyz
  1  'x, y, z'
loop_
 _atom_site_type_symbol
 _atom_site_label
 _atom_site_symmetry_multiplicity
 _atom_site_fract_x
 _atom_site_fract_y
 _atom_site_fract_z
 _atom_site_occupancy
  Mn  Mn1  1  0.600384  0.000000  0.499999  1.0
  Mn  Mn2  1  0.999939  0.600342  0.499999  1.0
  Mn  Mn3  1  0.399597  0.399658  0.499999  1.0
  Ni  Ni4  1  0.257621  0.000000  0.000000  1.0
  Ni  Ni5  1  0.999964  0.257594  0.000000  1.0
  Ni  Ni6  1  0.742371  0.742408  0.000000  1.0
  P  P7  1  0.000014  0.000000  0.499999  1.0
  P  P8  1  0.333337  0.666668  0.000000  1.0
  P  P9  1  0.666670  0.333334  0.000000  1.0
