# generated using pymatgen
data_YWO3
_symmetry_space_group_name_H-M   'P 1'
_cell_length_a   3.60857910
_cell_length_b   3.60857917
_cell_length_c   12.69004001
_cell_angle_alpha   90.00000000
_cell_angle_beta   90.00000000
_cell_angle_gamma   119.99999938
_symmetry_Int_Tables_number   1
_chemical_formula_structural   YWO3
_chemical_formula_sum   'Y2 W2 O6'
_cell_volume   143.10871863
_cell_formula_units_Z   2
loop_
 _symmetry_equiv_pos_site_id
 _symmetry_equiv_pos_as_xyz
  1  'x, y, z'
loop_
 _atom_site_type_symbol
 _atom_site_label
 _atom_site_symmetry_multiplicity
 _atom_site_fract_x
 _atom_site_fract_y
 _atom_site_fract_z
 _atom_site_occupancy
  Y  Y1  1  0.000000  0.000000  0.500000  1.0
  Y  Y2  1  0.000000  0.000000  0.000000  1.0
  W  W3  1  0.666665  0.333332  0.750000  1.0
  W  W4  1  0.333334  0.666668  0.250000  1.0
  O  O5  1  0.333334  0.666668  0.419091  1.0
  O  O6  1  0.666665  0.333332  0.919091  1.0
  O  O7  1  0.666665  0.333332  0.580910  1.0
  O  O8  1  0.333334  0.666668  0.080909  1.0
  O  O9  1  0.000000  0.000000  0.250000  1.0
  O  O10  1  0.000000  0.000000  0.750000  1.0
