# generated using pymatgen
data_GaTe
_symmetry_space_group_name_H-M   'P 1'
_cell_length_a   4.13459982
_cell_length_b   4.13459982
_cell_length_c   18.42557050
_cell_angle_alpha   90.00000000
_cell_angle_beta   90.00000000
_cell_angle_gamma   119.99999999
_symmetry_Int_Tables_number   1
_chemical_formula_structural   GaTe
_chemical_formula_sum   'Ga4 Te4'
_cell_volume   272.78377680
_cell_formula_units_Z   4
loop_
 _symmetry_equiv_pos_site_id
 _symmetry_equiv_pos_as_xyz
  1  'x, y, z'
loop_
 _atom_site_type_symbol
 _atom_site_label
 _atom_site_symmetry_multiplicity
 _atom_site_fract_x
 _atom_site_fract_y
 _atom_site_fract_z
 _atom_site_occupancy
  Ga  Ga1  1  0.333333  0.666667  0.182959  1.0
  Ga  Ga2  1  0.666667  0.333333  0.682959  1.0
  Ga  Ga3  1  0.666667  0.333333  0.817041  1.0
  Ga  Ga4  1  0.333333  0.666667  0.317041  1.0
  Te  Te5  1  0.333333  0.666667  0.886204  1.0
  Te  Te6  1  0.666667  0.333333  0.386204  1.0
  Te  Te7  1  0.666667  0.333333  0.113796  1.0
  Te  Te8  1  0.333333  0.666667  0.613796  1.0
