# generated using pymatgen
data_LaWN3
_symmetry_space_group_name_H-M   'P 1'
_cell_length_a   5.70353019
_cell_length_b   5.70353001
_cell_length_c   5.70353000
_cell_angle_alpha   60.10421543
_cell_angle_beta   60.10421651
_cell_angle_gamma   60.10422037
_symmetry_Int_Tables_number   1
_chemical_formula_structural   LaWN3
_chemical_formula_sum   'La2 W2 N6'
_cell_volume   131.50446667
_cell_formula_units_Z   2
loop_
 _symmetry_equiv_pos_site_id
 _symmetry_equiv_pos_as_xyz
  1  'x, y, z'
loop_
 _atom_site_type_symbol
 _atom_site_label
 _atom_site_symmetry_multiplicity
 _atom_site_fract_x
 _atom_site_fract_y
 _atom_site_fract_z
 _atom_site_occupancy
  La  La1  1  0.535070  0.535070  0.535070  1.0
  La  La2  1  0.035070  0.035070  0.035070  1.0
  W  W3  1  0.784390  0.784390  0.784390  1.0
  W  W4  1  0.284390  0.284390  0.284390  1.0
  N  N5  1  0.107330  0.999390  0.555530  1.0
  N  N6  1  0.499390  0.607330  0.055530  1.0
  N  N7  1  0.607330  0.055530  0.499390  1.0
  N  N8  1  0.055530  0.499390  0.607330  1.0
  N  N9  1  0.999390  0.555530  0.107330  1.0
  N  N10  1  0.555530  0.107330  0.999390  1.0
