# generated using pymatgen
data_MnO
_symmetry_space_group_name_H-M   'P 1'
_cell_length_a   3.19735560
_cell_length_b   3.19745322
_cell_length_c   5.44858816
_cell_angle_alpha   89.99985608
_cell_angle_beta   72.93751744
_cell_angle_gamma   59.99893076
_symmetry_Int_Tables_number   1
_chemical_formula_structural   MnO
_chemical_formula_sum   'Mn2 O2'
_cell_volume   45.38663895
_cell_formula_units_Z   2
loop_
 _symmetry_equiv_pos_site_id
 _symmetry_equiv_pos_as_xyz
  1  'x, y, z'
loop_
 _atom_site_type_symbol
 _atom_site_label
 _atom_site_symmetry_multiplicity
 _atom_site_fract_x
 _atom_site_fract_y
 _atom_site_fract_z
 _atom_site_occupancy
  Mn  Mn1  1  0.000000  0.000000  0.000000  1.0
  Mn  Mn2  1  0.000000  0.500000  0.500000  1.0
  O  O3  1  0.499999  0.750001  0.250001  1.0
  O  O4  1  0.500001  0.249999  0.749999  1.0
