# generated using pymatgen
data_TiGeRu2
_symmetry_space_group_name_H-M   'P 1'
_cell_length_a   4.33932362
_cell_length_b   4.34208430
_cell_length_c   4.33758766
_cell_angle_alpha   59.97809596
_cell_angle_beta   59.97283700
_cell_angle_gamma   59.97098810
_symmetry_Int_Tables_number   1
_chemical_formula_structural   TiGeRu2
_chemical_formula_sum   'Ti1 Ge1 Ru2'
_cell_volume   57.75600799
_cell_formula_units_Z   1
loop_
 _symmetry_equiv_pos_site_id
 _symmetry_equiv_pos_as_xyz
  1  'x, y, z'
loop_
 _atom_site_type_symbol
 _atom_site_label
 _atom_site_symmetry_multiplicity
 _atom_site_fract_x
 _atom_site_fract_y
 _atom_site_fract_z
 _atom_site_occupancy
  Ti  Ti1  1  0.750031  0.750010  0.750002  1.0
  Ge  Ge2  1  0.250025  0.250018  0.249959  1.0
  Ru  Ru3  1  0.000066  0.999950  0.999909  1.0
  Ru  Ru4  1  0.499878  0.500024  0.500132  1.0
