# generated using pymatgen
data_ZrBr3
_symmetry_space_group_name_H-M   'P 1'
_cell_length_a   7.49463483
_cell_length_b   7.49463484
_cell_length_c   6.28464502
_cell_angle_alpha   90.00000000
_cell_angle_beta   90.00000000
_cell_angle_gamma   120.00000001
_symmetry_Int_Tables_number   1
_chemical_formula_structural   ZrBr3
_chemical_formula_sum   'Zr2 Br6'
_cell_volume   305.71189598
_cell_formula_units_Z   2
loop_
 _symmetry_equiv_pos_site_id
 _symmetry_equiv_pos_as_xyz
  1  'x, y, z'
loop_
 _atom_site_type_symbol
 _atom_site_label
 _atom_site_symmetry_multiplicity
 _atom_site_fract_x
 _atom_site_fract_y
 _atom_site_fract_z
 _atom_site_occupancy
  Zr  Zr1  1  0.000000  0.000000  0.500000  1.0
  Zr  Zr2  1  0.000000  0.000000  0.000000  1.0
  Br  Br3  1  0.703933  0.000000  0.750000  1.0
  Br  Br4  1  0.703933  0.703933  0.250000  1.0
  Br  Br5  1  0.296067  0.000000  0.250000  1.0
  Br  Br6  1  0.296067  0.296067  0.750000  1.0
  Br  Br7  1  0.000000  0.703933  0.750000  1.0
  Br  Br8  1  0.000000  0.296067  0.250000  1.0
