# generated using pymatgen
data_VFeRu2
_symmetry_space_group_name_H-M   'P 1'
_cell_length_a   4.25202711
_cell_length_b   4.25202686
_cell_length_c   4.25202673
_cell_angle_alpha   59.99995368
_cell_angle_beta   59.99995753
_cell_angle_gamma   59.99995786
_symmetry_Int_Tables_number   1
_chemical_formula_structural   VFeRu2
_chemical_formula_sum   'V1 Fe1 Ru2'
_cell_volume   54.35914066
_cell_formula_units_Z   1
loop_
 _symmetry_equiv_pos_site_id
 _symmetry_equiv_pos_as_xyz
  1  'x, y, z'
loop_
 _atom_site_type_symbol
 _atom_site_label
 _atom_site_symmetry_multiplicity
 _atom_site_fract_x
 _atom_site_fract_y
 _atom_site_fract_z
 _atom_site_occupancy
  V  V1  1  0.749998  0.749998  0.749998  1.0
  Fe  Fe2  1  0.249999  0.249999  0.249999  1.0
  Ru  Ru3  1  0.000000  0.000000  0.000000  1.0
  Ru  Ru4  1  0.500001  0.500001  0.500001  1.0
