# generated using pymatgen
data_K2Sn
_symmetry_space_group_name_H-M   'P 1'
_cell_length_a   6.12965370
_cell_length_b   6.12965370
_cell_length_c   6.12965406
_cell_angle_alpha   59.65407920
_cell_angle_beta   59.65407920
_cell_angle_gamma   59.65408188
_symmetry_Int_Tables_number   1
_chemical_formula_structural   K2Sn
_chemical_formula_sum   'K2 Sn1'
_cell_volume   161.57193019
_cell_formula_units_Z   1
loop_
 _symmetry_equiv_pos_site_id
 _symmetry_equiv_pos_as_xyz
  1  'x, y, z'
loop_
 _atom_site_type_symbol
 _atom_site_label
 _atom_site_symmetry_multiplicity
 _atom_site_fract_x
 _atom_site_fract_y
 _atom_site_fract_z
 _atom_site_occupancy
  K  K1  1  0.250168  0.250168  0.250168  1.0
  K  K2  1  0.749832  0.749832  0.749832  1.0
  Sn  Sn3  1  0.000000  0.000000  0.000000  1.0
