# generated using pymatgen
data_KRb2InCl6
_symmetry_space_group_name_H-M   'P 1'
_cell_length_a   7.82226721
_cell_length_b   7.82226757
_cell_length_c   7.82226755
_cell_angle_alpha   59.99999886
_cell_angle_beta   59.99999833
_cell_angle_gamma   59.99999836
_symmetry_Int_Tables_number   1
_chemical_formula_structural   KRb2InCl6
_chemical_formula_sum   'K1 Rb2 In1 Cl6'
_cell_volume   338.44099934
_cell_formula_units_Z   1
loop_
 _symmetry_equiv_pos_site_id
 _symmetry_equiv_pos_as_xyz
  1  'x, y, z'
loop_
 _atom_site_type_symbol
 _atom_site_label
 _atom_site_symmetry_multiplicity
 _atom_site_fract_x
 _atom_site_fract_y
 _atom_site_fract_z
 _atom_site_occupancy
  K  K1  1  0.500000  0.500000  0.500000  1.0
  Rb  Rb2  1  0.250000  0.250000  0.250000  1.0
  Rb  Rb3  1  0.750000  0.750000  0.750000  1.0
  In  In4  1  0.000000  0.000000  0.000000  1.0
  Cl  Cl5  1  0.229802  0.770198  0.229802  1.0
  Cl  Cl6  1  0.770198  0.770198  0.229802  1.0
  Cl  Cl7  1  0.770198  0.229802  0.770198  1.0
  Cl  Cl8  1  0.770198  0.229802  0.229802  1.0
  Cl  Cl9  1  0.229802  0.770198  0.770198  1.0
  Cl  Cl10  1  0.229802  0.229802  0.770198  1.0
