# generated using pymatgen
data_Sr(CuSi)2
_symmetry_space_group_name_H-M   'P 1'
_cell_length_a   4.18993458
_cell_length_b   4.18993458
_cell_length_c   5.79111967
_cell_angle_alpha   111.20802419
_cell_angle_beta   111.20802413
_cell_angle_gamma   90.00000006
_symmetry_Int_Tables_number   1
_chemical_formula_structural   Sr(CuSi)2
_chemical_formula_sum   'Sr1 Cu2 Si2'
_cell_volume   87.35415915
_cell_formula_units_Z   1
loop_
 _symmetry_equiv_pos_site_id
 _symmetry_equiv_pos_as_xyz
  1  'x, y, z'
loop_
 _atom_site_type_symbol
 _atom_site_label
 _atom_site_symmetry_multiplicity
 _atom_site_fract_x
 _atom_site_fract_y
 _atom_site_fract_z
 _atom_site_occupancy
  Sr  Sr1  1  0.000000  0.000000  0.000000  1.0
  Cu  Cu2  1  0.750000  0.250000  0.500000  1.0
  Cu  Cu3  1  0.250000  0.750000  0.500000  1.0
  Si  Si4  1  0.623195  0.623195  0.246391  1.0
  Si  Si5  1  0.376805  0.376805  0.753609  1.0
