# generated using pymatgen
data_HfGeO4
_symmetry_space_group_name_H-M   'P 1'
_cell_length_a   4.88853422
_cell_length_b   4.88853422
_cell_length_c   6.32611148
_cell_angle_alpha   112.72928346
_cell_angle_beta   112.72928349
_cell_angle_gamma   89.99999998
_symmetry_Int_Tables_number   1
_chemical_formula_structural   HfGeO4
_chemical_formula_sum   'Hf2 Ge2 O8'
_cell_volume   126.61487722
_cell_formula_units_Z   2
loop_
 _symmetry_equiv_pos_site_id
 _symmetry_equiv_pos_as_xyz
  1  'x, y, z'
loop_
 _atom_site_type_symbol
 _atom_site_label
 _atom_site_symmetry_multiplicity
 _atom_site_fract_x
 _atom_site_fract_y
 _atom_site_fract_z
 _atom_site_occupancy
  Hf  Hf1  1  0.375000  0.125000  0.750000  1.0
  Hf  Hf2  1  0.625000  0.875000  0.250000  1.0
  Ge  Ge3  1  0.875000  0.625000  0.750000  1.0
  Ge  Ge4  1  0.125000  0.375000  0.250000  1.0
  O  O5  1  0.312491  0.467707  0.086112  1.0
  O  O6  1  0.618405  0.812491  0.586112  1.0
  O  O7  1  0.967707  0.273621  0.586112  1.0
  O  O8  1  0.773621  0.118405  0.086112  1.0
  O  O9  1  0.226379  0.881595  0.913888  1.0
  O  O10  1  0.032293  0.726379  0.413888  1.0
  O  O11  1  0.381595  0.187509  0.413888  1.0
  O  O12  1  0.687509  0.532293  0.913888  1.0
