# generated using pymatgen
data_Dy2ZnGa
_symmetry_space_group_name_H-M   'P 1'
_cell_length_a   5.04954845
_cell_length_b   5.04954493
_cell_length_c   5.04954756
_cell_angle_alpha   59.99997119
_cell_angle_beta   59.99994191
_cell_angle_gamma   59.99996850
_symmetry_Int_Tables_number   1
_chemical_formula_structural   Dy2ZnGa
_chemical_formula_sum   'Dy2 Zn1 Ga1'
_cell_volume   91.04201579
_cell_formula_units_Z   1
loop_
 _symmetry_equiv_pos_site_id
 _symmetry_equiv_pos_as_xyz
  1  'x, y, z'
loop_
 _atom_site_type_symbol
 _atom_site_label
 _atom_site_symmetry_multiplicity
 _atom_site_fract_x
 _atom_site_fract_y
 _atom_site_fract_z
 _atom_site_occupancy
  Dy  Dy1  1  0.500000  0.500000  0.500000  1.0
  Dy  Dy2  1  0.000000  0.000000  0.000000  1.0
  Zn  Zn3  1  0.750001  0.750001  0.750001  1.0
  Ga  Ga4  1  0.250000  0.250000  0.250000  1.0
