# generated using pymatgen
data_SmHoIr2
_symmetry_space_group_name_H-M   'P 1'
_cell_length_a   4.89463450
_cell_length_b   4.89464999
_cell_length_c   4.89465087
_cell_angle_alpha   59.99983202
_cell_angle_beta   60.00006232
_cell_angle_gamma   59.99999728
_symmetry_Int_Tables_number   1
_chemical_formula_structural   SmHoIr2
_chemical_formula_sum   'Sm1 Ho1 Ir2'
_cell_volume   82.91789616
_cell_formula_units_Z   1
loop_
 _symmetry_equiv_pos_site_id
 _symmetry_equiv_pos_as_xyz
  1  'x, y, z'
loop_
 _atom_site_type_symbol
 _atom_site_label
 _atom_site_symmetry_multiplicity
 _atom_site_fract_x
 _atom_site_fract_y
 _atom_site_fract_z
 _atom_site_occupancy
  Sm  Sm1  1  0.750001  0.750000  0.750000  1.0
  Ho  Ho2  1  0.249996  0.250000  0.249999  1.0
  Ir  Ir3  1  0.000001  0.999999  0.000000  1.0
  Ir  Ir4  1  0.500001  0.500000  0.500000  1.0
