# generated using pymatgen
data_Cs2AlInH6
_symmetry_space_group_name_H-M   'P 1'
_cell_length_a   6.25371024
_cell_length_b   6.25371024
_cell_length_c   6.25371024
_cell_angle_alpha   60.00000000
_cell_angle_beta   60.00000000
_cell_angle_gamma   60.00000000
_symmetry_Int_Tables_number   1
_chemical_formula_structural   Cs2AlInH6
_chemical_formula_sum   'Cs2 Al1 In1 H6'
_cell_volume   172.94111966
_cell_formula_units_Z   1
loop_
 _symmetry_equiv_pos_site_id
 _symmetry_equiv_pos_as_xyz
  1  'x, y, z'
loop_
 _atom_site_type_symbol
 _atom_site_label
 _atom_site_symmetry_multiplicity
 _atom_site_fract_x
 _atom_site_fract_y
 _atom_site_fract_z
 _atom_site_occupancy
  Cs  Cs1  1  0.250000  0.250000  0.250000  1.0
  Cs  Cs2  1  0.750000  0.750000  0.750000  1.0
  Al  Al3  1  0.500000  0.500000  0.500000  1.0
  In  In4  1  0.000000  0.000000  0.000000  1.0
  H  H5  1  0.296409  0.703591  0.703591  1.0
  H  H6  1  0.296409  0.703591  0.296409  1.0
  H  H7  1  0.703591  0.296409  0.703591  1.0
  H  H8  1  0.703591  0.703591  0.296409  1.0
  H  H9  1  0.296409  0.296409  0.703591  1.0
  H  H10  1  0.703591  0.296409  0.296409  1.0
