# generated using pymatgen
data_HfAlRh2
_symmetry_space_group_name_H-M   'P 1'
_cell_length_a   4.46215064
_cell_length_b   4.46215416
_cell_length_c   4.46214500
_cell_angle_alpha   59.99998050
_cell_angle_beta   60.00004424
_cell_angle_gamma   60.00005745
_symmetry_Int_Tables_number   1
_chemical_formula_structural   HfAlRh2
_chemical_formula_sum   'Hf1 Al1 Rh2'
_cell_volume   62.82286654
_cell_formula_units_Z   1
loop_
 _symmetry_equiv_pos_site_id
 _symmetry_equiv_pos_as_xyz
  1  'x, y, z'
loop_
 _atom_site_type_symbol
 _atom_site_label
 _atom_site_symmetry_multiplicity
 _atom_site_fract_x
 _atom_site_fract_y
 _atom_site_fract_z
 _atom_site_occupancy
  Hf  Hf1  1  0.750000  0.750000  0.750000  1.0
  Al  Al2  1  0.250000  0.250000  0.250000  1.0
  Rh  Rh3  1  0.000000  0.999999  0.000001  1.0
  Rh  Rh4  1  0.500000  0.500001  0.499999  1.0
