# generated using pymatgen
data_BeVRu2
_symmetry_space_group_name_H-M   'P 1'
_cell_length_a   4.12675853
_cell_length_b   4.12675853
_cell_length_c   4.12675853
_cell_angle_alpha   59.95495187
_cell_angle_beta   59.95495187
_cell_angle_gamma   59.95495187
_symmetry_Int_Tables_number   1
_chemical_formula_structural   BeVRu2
_chemical_formula_sum   'Be1 V1 Ru2'
_cell_volume   49.64417004
_cell_formula_units_Z   1
loop_
 _symmetry_equiv_pos_site_id
 _symmetry_equiv_pos_as_xyz
  1  'x, y, z'
loop_
 _atom_site_type_symbol
 _atom_site_label
 _atom_site_symmetry_multiplicity
 _atom_site_fract_x
 _atom_site_fract_y
 _atom_site_fract_z
 _atom_site_occupancy
  Be  Be1  1  0.249991  0.249991  0.249991  1.0
  V  V2  1  0.749998  0.749998  0.749998  1.0
  Ru  Ru3  1  0.000575  0.000575  0.000575  1.0
  Ru  Ru4  1  0.499432  0.499432  0.499432  1.0
