# generated using pymatgen
data_HoCdAg2
_symmetry_space_group_name_H-M   'P 1'
_cell_length_a   4.94573146
_cell_length_b   4.94573031
_cell_length_c   4.94573071
_cell_angle_alpha   59.99998496
_cell_angle_beta   59.99985348
_cell_angle_gamma   59.99998203
_symmetry_Int_Tables_number   1
_chemical_formula_structural   HoCdAg2
_chemical_formula_sum   'Ho1 Cd1 Ag2'
_cell_volume   85.54129899
_cell_formula_units_Z   1
loop_
 _symmetry_equiv_pos_site_id
 _symmetry_equiv_pos_as_xyz
  1  'x, y, z'
loop_
 _atom_site_type_symbol
 _atom_site_label
 _atom_site_symmetry_multiplicity
 _atom_site_fract_x
 _atom_site_fract_y
 _atom_site_fract_z
 _atom_site_occupancy
  Ho  Ho1  1  0.750000  0.750000  0.750000  1.0
  Cd  Cd2  1  0.250000  0.250000  0.250000  1.0
  Ag  Ag3  1  0.500001  0.500001  0.500001  1.0
  Ag  Ag4  1  0.000000  0.000000  0.000000  1.0
