# generated using pymatgen
data_PaNi2Sn
_symmetry_space_group_name_H-M   'P 1'
_cell_length_a   4.60172471
_cell_length_b   4.59856862
_cell_length_c   4.60471500
_cell_angle_alpha   60.00686540
_cell_angle_beta   60.03942282
_cell_angle_gamma   59.95084459
_symmetry_Int_Tables_number   1
_chemical_formula_structural   PaNi2Sn
_chemical_formula_sum   'Pa1 Ni2 Sn1'
_cell_volume   68.90030137
_cell_formula_units_Z   1
loop_
 _symmetry_equiv_pos_site_id
 _symmetry_equiv_pos_as_xyz
  1  'x, y, z'
loop_
 _atom_site_type_symbol
 _atom_site_label
 _atom_site_symmetry_multiplicity
 _atom_site_fract_x
 _atom_site_fract_y
 _atom_site_fract_z
 _atom_site_occupancy
  Pa  Pa1  1  0.249963  0.249968  0.250064  1.0
  Ni  Ni2  1  0.000078  0.000177  0.000073  1.0
  Ni  Ni3  1  0.499961  0.499842  0.499891  1.0
  Sn  Sn4  1  0.749999  0.750015  0.749973  1.0
