# generated using pymatgen
data_CaPt2
_symmetry_space_group_name_H-M   'P 1'
_cell_length_a   5.46184941
_cell_length_b   5.46184941
_cell_length_c   5.46184941
_cell_angle_alpha   59.99999995
_cell_angle_beta   59.99999995
_cell_angle_gamma   60.00000001
_symmetry_Int_Tables_number   1
_chemical_formula_structural   CaPt2
_chemical_formula_sum   'Ca2 Pt4'
_cell_volume   115.21371161
_cell_formula_units_Z   2
loop_
 _symmetry_equiv_pos_site_id
 _symmetry_equiv_pos_as_xyz
  1  'x, y, z'
loop_
 _atom_site_type_symbol
 _atom_site_label
 _atom_site_symmetry_multiplicity
 _atom_site_fract_x
 _atom_site_fract_y
 _atom_site_fract_z
 _atom_site_occupancy
  Ca  Ca1  1  0.625000  0.625000  0.625000  1.0
  Ca  Ca2  1  0.375000  0.375000  0.375000  1.0
  Pt  Pt3  1  0.500000  0.000000  0.000000  1.0
  Pt  Pt4  1  0.000000  0.500000  0.000000  1.0
  Pt  Pt5  1  0.000000  0.000000  0.500000  1.0
  Pt  Pt6  1  0.000000  0.000000  0.000000  1.0
