# generated using pymatgen
data_Be2Ag
_symmetry_space_group_name_H-M   'P 1'
_cell_length_a   4.53949450
_cell_length_b   4.53949450
_cell_length_c   4.53949450
_cell_angle_alpha   60.00000002
_cell_angle_beta   60.00000002
_cell_angle_gamma   59.99999997
_symmetry_Int_Tables_number   1
_chemical_formula_structural   Be2Ag
_chemical_formula_sum   'Be4 Ag2'
_cell_volume   66.14659376
_cell_formula_units_Z   2
loop_
 _symmetry_equiv_pos_site_id
 _symmetry_equiv_pos_as_xyz
  1  'x, y, z'
loop_
 _atom_site_type_symbol
 _atom_site_label
 _atom_site_symmetry_multiplicity
 _atom_site_fract_x
 _atom_site_fract_y
 _atom_site_fract_z
 _atom_site_occupancy
  Be  Be1  1  0.500000  0.000000  0.500000  1.0
  Be  Be2  1  0.000000  0.500000  0.500000  1.0
  Be  Be3  1  0.500000  0.500000  0.500000  1.0
  Be  Be4  1  0.500000  0.500000  0.000000  1.0
  Ag  Ag5  1  0.125000  0.125000  0.125000  1.0
  Ag  Ag6  1  0.875000  0.875000  0.875000  1.0
