# generated using pymatgen
data_ScCu3
_symmetry_space_group_name_H-M   'P 1'
_cell_length_a   4.31656223
_cell_length_b   4.31657249
_cell_length_c   4.31657042
_cell_angle_alpha   59.99965693
_cell_angle_beta   59.99988664
_cell_angle_gamma   59.99960957
_symmetry_Int_Tables_number   1
_chemical_formula_structural   ScCu3
_chemical_formula_sum   'Sc1 Cu3'
_cell_volume   56.87194718
_cell_formula_units_Z   1
loop_
 _symmetry_equiv_pos_site_id
 _symmetry_equiv_pos_as_xyz
  1  'x, y, z'
loop_
 _atom_site_type_symbol
 _atom_site_label
 _atom_site_symmetry_multiplicity
 _atom_site_fract_x
 _atom_site_fract_y
 _atom_site_fract_z
 _atom_site_occupancy
  Sc  Sc1  1  0.749999  0.750003  0.750000  1.0
  Cu  Cu2  1  0.250002  0.250000  0.250000  1.0
  Cu  Cu3  1  0.000002  0.999999  0.000000  1.0
  Cu  Cu4  1  0.499999  0.499999  0.500001  1.0
