# generated using pymatgen
data_Mg2AgPt
_symmetry_space_group_name_H-M   'P 1'
_cell_length_a   4.59032290
_cell_length_b   4.59032290
_cell_length_c   4.59032290
_cell_angle_alpha   60.00000000
_cell_angle_beta   60.00000000
_cell_angle_gamma   60.00000000
_symmetry_Int_Tables_number   1
_chemical_formula_structural   Mg2AgPt
_chemical_formula_sum   'Mg2 Ag1 Pt1'
_cell_volume   68.39348149
_cell_formula_units_Z   1
loop_
 _symmetry_equiv_pos_site_id
 _symmetry_equiv_pos_as_xyz
  1  'x, y, z'
loop_
 _atom_site_type_symbol
 _atom_site_label
 _atom_site_symmetry_multiplicity
 _atom_site_fract_x
 _atom_site_fract_y
 _atom_site_fract_z
 _atom_site_occupancy
  Mg  Mg1  1  0.000000  0.000000  0.000000  1.0
  Mg  Mg2  1  0.499999  0.499999  0.499999  1.0
  Ag  Ag3  1  0.250000  0.250000  0.250000  1.0
  Pt  Pt4  1  0.750000  0.750000  0.750000  1.0
