# generated using pymatgen
data_TaN2
_symmetry_space_group_name_H-M   'P 1'
_cell_length_a   3.07014760
_cell_length_b   3.07016992
_cell_length_c   7.76989254
_cell_angle_alpha   90.00000000
_cell_angle_beta   90.00000000
_cell_angle_gamma   119.99975949
_symmetry_Int_Tables_number   1
_chemical_formula_structural   TaN2
_chemical_formula_sum   'Ta2 N4'
_cell_volume   63.42615201
_cell_formula_units_Z   2
loop_
 _symmetry_equiv_pos_site_id
 _symmetry_equiv_pos_as_xyz
  1  'x, y, z'
loop_
 _atom_site_type_symbol
 _atom_site_label
 _atom_site_symmetry_multiplicity
 _atom_site_fract_x
 _atom_site_fract_y
 _atom_site_fract_z
 _atom_site_occupancy
  Ta  Ta1  1  0.666673  0.333347  0.250000  1.0
  Ta  Ta2  1  0.333327  0.666653  0.750000  1.0
  N  N3  1  0.000008  0.000017  0.409216  1.0
  N  N4  1  0.999992  0.999983  0.590784  1.0
  N  N5  1  0.999992  0.999983  0.909216  1.0
  N  N6  1  0.000008  0.000017  0.090784  1.0
