# generated using pymatgen
data_AsPd2
_symmetry_space_group_name_H-M   'P 1'
_cell_length_a   3.33114310
_cell_length_b   6.70494520
_cell_length_c   8.75637294
_cell_angle_alpha   90.00000000
_cell_angle_beta   100.96518548
_cell_angle_gamma   90.00000000
_symmetry_Int_Tables_number   1
_chemical_formula_structural   AsPd2
_chemical_formula_sum   'As4 Pd8'
_cell_volume   192.00412568
_cell_formula_units_Z   4
loop_
 _symmetry_equiv_pos_site_id
 _symmetry_equiv_pos_as_xyz
  1  'x, y, z'
loop_
 _atom_site_type_symbol
 _atom_site_label
 _atom_site_symmetry_multiplicity
 _atom_site_fract_x
 _atom_site_fract_y
 _atom_site_fract_z
 _atom_site_occupancy
  As  As1  1  0.203880  0.231827  0.407760  1.0
  As  As2  1  0.796120  0.731827  0.592240  1.0
  As  As3  1  0.558393  0.697263  0.116786  1.0
  As  As4  1  0.441607  0.197263  0.883214  1.0
  Pd  Pd5  1  0.674596  0.960826  0.349193  1.0
  Pd  Pd6  1  0.325404  0.460826  0.650807  1.0
  Pd  Pd7  1  0.415001  0.826909  0.830002  1.0
  Pd  Pd8  1  0.584999  0.326909  0.169998  1.0
  Pd  Pd9  1  0.170940  0.607714  0.341880  1.0
  Pd  Pd10  1  0.829060  0.107714  0.658120  1.0
  Pd  Pd11  1  0.961671  0.489761  0.923342  1.0
  Pd  Pd12  1  0.038329  0.989761  0.076659  1.0
