# generated using pymatgen
data_Ba(MgGe)2
_symmetry_space_group_name_H-M   'P 1'
_cell_length_a   4.70052039
_cell_length_b   4.70052040
_cell_length_c   6.62974170
_cell_angle_alpha   110.76295858
_cell_angle_beta   110.76295863
_cell_angle_gamma   89.99999997
_symmetry_Int_Tables_number   1
_chemical_formula_structural   Ba(MgGe)2
_chemical_formula_sum   'Ba1 Mg2 Ge2'
_cell_volume   126.74464547
_cell_formula_units_Z   1
loop_
 _symmetry_equiv_pos_site_id
 _symmetry_equiv_pos_as_xyz
  1  'x, y, z'
loop_
 _atom_site_type_symbol
 _atom_site_label
 _atom_site_symmetry_multiplicity
 _atom_site_fract_x
 _atom_site_fract_y
 _atom_site_fract_z
 _atom_site_occupancy
  Ba  Ba1  1  0.000000  0.000000  0.000000  1.0
  Mg  Mg2  1  0.750000  0.250000  0.500000  1.0
  Mg  Mg3  1  0.250000  0.750000  0.500000  1.0
  Ge  Ge4  1  0.616216  0.616216  0.232432  1.0
  Ge  Ge5  1  0.383784  0.383784  0.767568  1.0
