# generated using pymatgen
data_Mn2GaW
_symmetry_space_group_name_H-M   'P 1'
_cell_length_a   4.18561421
_cell_length_b   4.18561421
_cell_length_c   4.18561421
_cell_angle_alpha   59.98276119
_cell_angle_beta   59.98276119
_cell_angle_gamma   59.98276119
_symmetry_Int_Tables_number   1
_chemical_formula_structural   Mn2GaW
_chemical_formula_sum   'Mn2 Ga1 W1'
_cell_volume   51.83138312
_cell_formula_units_Z   1
loop_
 _symmetry_equiv_pos_site_id
 _symmetry_equiv_pos_as_xyz
  1  'x, y, z'
loop_
 _atom_site_type_symbol
 _atom_site_label
 _atom_site_symmetry_multiplicity
 _atom_site_fract_x
 _atom_site_fract_y
 _atom_site_fract_z
 _atom_site_occupancy
  Mn  Mn1  1  0.000021  0.000021  0.000021  1.0
  Mn  Mn2  1  0.499980  0.499980  0.499980  1.0
  Ga  Ga3  1  0.249997  0.249997  0.249997  1.0
  W  W4  1  0.750002  0.750002  0.750002  1.0
