# generated using pymatgen
data_NaCaAs
_symmetry_space_group_name_H-M   'P 1'
_cell_length_a   4.92719850
_cell_length_b   4.92719836
_cell_length_c   4.92719863
_cell_angle_alpha   59.99999815
_cell_angle_beta   59.99999906
_cell_angle_gamma   60.00000272
_symmetry_Int_Tables_number   1
_chemical_formula_structural   NaCaAs
_chemical_formula_sum   'Na1 Ca1 As1'
_cell_volume   84.58340763
_cell_formula_units_Z   1
loop_
 _symmetry_equiv_pos_site_id
 _symmetry_equiv_pos_as_xyz
  1  'x, y, z'
loop_
 _atom_site_type_symbol
 _atom_site_label
 _atom_site_symmetry_multiplicity
 _atom_site_fract_x
 _atom_site_fract_y
 _atom_site_fract_z
 _atom_site_occupancy
  Na  Na1  1  0.500000  0.500000  0.500000  1.0
  Ca  Ca2  1  0.000000  0.000000  0.000000  1.0
  As  As3  1  0.250000  0.250000  0.250000  1.0
