# generated using pymatgen
data_Hf2CoTc
_symmetry_space_group_name_H-M   'P 1'
_cell_length_a   4.54258348
_cell_length_b   4.54258512
_cell_length_c   4.54258385
_cell_angle_alpha   59.99998249
_cell_angle_beta   59.99998187
_cell_angle_gamma   60.00001339
_symmetry_Int_Tables_number   1
_chemical_formula_structural   Hf2CoTc
_chemical_formula_sum   'Hf2 Co1 Tc1'
_cell_volume   66.28173573
_cell_formula_units_Z   1
loop_
 _symmetry_equiv_pos_site_id
 _symmetry_equiv_pos_as_xyz
  1  'x, y, z'
loop_
 _atom_site_type_symbol
 _atom_site_label
 _atom_site_symmetry_multiplicity
 _atom_site_fract_x
 _atom_site_fract_y
 _atom_site_fract_z
 _atom_site_occupancy
  Hf  Hf1  1  0.000000  0.000000  0.000000  1.0
  Hf  Hf2  1  0.500001  0.500001  0.500001  1.0
  Co  Co3  1  0.250000  0.250000  0.250000  1.0
  Tc  Tc4  1  0.750000  0.750000  0.750000  1.0
