# generated using pymatgen
data_SmYIn2
_symmetry_space_group_name_H-M   'P 1'
_cell_length_a   5.38296682
_cell_length_b   5.38296935
_cell_length_c   5.38297266
_cell_angle_alpha   59.99098008
_cell_angle_beta   59.99103583
_cell_angle_gamma   59.99100367
_symmetry_Int_Tables_number   1
_chemical_formula_structural   SmYIn2
_chemical_formula_sum   'Sm1 Y1 In2'
_cell_volume   110.27122965
_cell_formula_units_Z   1
loop_
 _symmetry_equiv_pos_site_id
 _symmetry_equiv_pos_as_xyz
  1  'x, y, z'
loop_
 _atom_site_type_symbol
 _atom_site_label
 _atom_site_symmetry_multiplicity
 _atom_site_fract_x
 _atom_site_fract_y
 _atom_site_fract_z
 _atom_site_occupancy
  Sm  Sm1  1  0.249988  0.249987  0.249987  1.0
  Y  Y2  1  0.749987  0.749987  0.749987  1.0
  In  In3  1  0.999987  0.999987  0.999987  1.0
  In  In4  1  0.500039  0.500039  0.500039  1.0
