# generated using pymatgen
data_VZnF4
_symmetry_space_group_name_H-M   'P 1'
_cell_length_a   5.68482713
_cell_length_b   5.20146232
_cell_length_c   5.87162536
_cell_angle_alpha   104.30881244
_cell_angle_beta   109.58808220
_cell_angle_gamma   89.77054753
_symmetry_Int_Tables_number   1
_chemical_formula_structural   VZnF4
_chemical_formula_sum   'V2 Zn2 F8'
_cell_volume   157.90584764
_cell_formula_units_Z   2
loop_
 _symmetry_equiv_pos_site_id
 _symmetry_equiv_pos_as_xyz
  1  'x, y, z'
loop_
 _atom_site_type_symbol
 _atom_site_label
 _atom_site_symmetry_multiplicity
 _atom_site_fract_x
 _atom_site_fract_y
 _atom_site_fract_z
 _atom_site_occupancy
  V  V1  1  0.999557  0.495447  0.996348  1.0
  V  V2  1  0.499436  0.995311  0.996155  1.0
  Zn  Zn3  1  0.333825  0.303089  0.559207  1.0
  Zn  Zn4  1  0.665389  0.687477  0.433233  1.0
  F  F5  1  0.042299  0.303281  0.277132  1.0
  F  F6  1  0.662123  0.213149  0.805193  1.0
  F  F7  1  0.956486  0.688368  0.716077  1.0
  F  F8  1  0.208050  0.219413  0.816551  1.0
  F  F9  1  0.336952  0.777849  0.187504  1.0
  F  F10  1  0.551236  0.292876  0.329259  1.0
  F  F11  1  0.790861  0.771392  0.175801  1.0
  F  F12  1  0.447558  0.697873  0.662987  1.0
