# generated using pymatgen
data_C
_symmetry_space_group_name_H-M   'P 1'
_cell_length_a   4.22354551
_cell_length_b   4.22354618
_cell_length_c   4.22354619
_cell_angle_alpha   109.47122731
_cell_angle_beta   109.47123060
_cell_angle_gamma   109.47121706
_symmetry_Int_Tables_number   1
_chemical_formula_structural   C
_chemical_formula_sum   C8
_cell_volume   57.99755863
_cell_formula_units_Z   8
loop_
 _symmetry_equiv_pos_site_id
 _symmetry_equiv_pos_as_xyz
  1  'x, y, z'
loop_
 _atom_site_type_symbol
 _atom_site_label
 _atom_site_symmetry_multiplicity
 _atom_site_fract_x
 _atom_site_fract_y
 _atom_site_fract_z
 _atom_site_occupancy
  C  C1  1  0.000000  0.325233  0.000000  1.0
  C  C2  1  0.674767  0.674767  0.674767  1.0
  C  C3  1  0.000000  0.000000  0.325233  1.0
  C  C4  1  0.325233  0.000000  0.000000  1.0
  C  C5  1  0.000000  0.000000  0.674767  1.0
  C  C6  1  0.325233  0.325233  0.325233  1.0
  C  C7  1  0.000000  0.674767  0.000000  1.0
  C  C8  1  0.674767  0.000000  0.000000  1.0
