# generated using pymatgen
data_Ti2ReRh
_symmetry_space_group_name_H-M   'P 1'
_cell_length_a   4.40067710
_cell_length_b   4.40069296
_cell_length_c   4.40072282
_cell_angle_alpha   59.99991198
_cell_angle_beta   60.00045557
_cell_angle_gamma   60.00045313
_symmetry_Int_Tables_number   1
_chemical_formula_structural   Ti2ReRh
_chemical_formula_sum   'Ti2 Re1 Rh1'
_cell_volume   60.26321302
_cell_formula_units_Z   1
loop_
 _symmetry_equiv_pos_site_id
 _symmetry_equiv_pos_as_xyz
  1  'x, y, z'
loop_
 _atom_site_type_symbol
 _atom_site_label
 _atom_site_symmetry_multiplicity
 _atom_site_fract_x
 _atom_site_fract_y
 _atom_site_fract_z
 _atom_site_occupancy
  Ti  Ti1  1  0.999998  0.000000  0.000003  1.0
  Ti  Ti2  1  0.499999  0.500000  0.500003  1.0
  Re  Re3  1  0.250004  0.250000  0.249997  1.0
  Rh  Rh4  1  0.750001  0.750002  0.749999  1.0
