# generated using pymatgen
data_Rb2TlInCl6
_symmetry_space_group_name_H-M   'P 1'
_cell_length_a   7.90360917
_cell_length_b   7.90360954
_cell_length_c   7.90360951
_cell_angle_alpha   59.99999883
_cell_angle_beta   59.99999820
_cell_angle_gamma   59.99999834
_symmetry_Int_Tables_number   1
_chemical_formula_structural   Rb2TlInCl6
_chemical_formula_sum   'Rb2 Tl1 In1 Cl6'
_cell_volume   349.10928157
_cell_formula_units_Z   1
loop_
 _symmetry_equiv_pos_site_id
 _symmetry_equiv_pos_as_xyz
  1  'x, y, z'
loop_
 _atom_site_type_symbol
 _atom_site_label
 _atom_site_symmetry_multiplicity
 _atom_site_fract_x
 _atom_site_fract_y
 _atom_site_fract_z
 _atom_site_occupancy
  Rb  Rb1  1  0.250000  0.250000  0.250000  1.0
  Rb  Rb2  1  0.750000  0.750000  0.750000  1.0
  Tl  Tl3  1  0.500000  0.500000  0.500000  1.0
  In  In4  1  0.000000  0.000000  0.000000  1.0
  Cl  Cl5  1  0.228018  0.771982  0.228018  1.0
  Cl  Cl6  1  0.771982  0.771982  0.228018  1.0
  Cl  Cl7  1  0.771982  0.228018  0.771982  1.0
  Cl  Cl8  1  0.771982  0.228018  0.228018  1.0
  Cl  Cl9  1  0.228018  0.771982  0.771982  1.0
  Cl  Cl10  1  0.228018  0.228018  0.771982  1.0
