# generated using pymatgen
data_MnNbRu2
_symmetry_space_group_name_H-M   'P 1'
_cell_length_a   4.39796368
_cell_length_b   4.39798163
_cell_length_c   4.39796945
_cell_angle_alpha   59.99998043
_cell_angle_beta   59.99995203
_cell_angle_gamma   59.99985268
_symmetry_Int_Tables_number   1
_chemical_formula_structural   MnNbRu2
_chemical_formula_sum   'Mn1 Nb1 Ru2'
_cell_volume   60.15082035
_cell_formula_units_Z   1
loop_
 _symmetry_equiv_pos_site_id
 _symmetry_equiv_pos_as_xyz
  1  'x, y, z'
loop_
 _atom_site_type_symbol
 _atom_site_label
 _atom_site_symmetry_multiplicity
 _atom_site_fract_x
 _atom_site_fract_y
 _atom_site_fract_z
 _atom_site_occupancy
  Mn  Mn1  1  0.249999  0.250002  0.250001  1.0
  Nb  Nb2  1  0.750001  0.749999  0.750000  1.0
  Ru  Ru3  1  0.000001  0.999999  0.000000  1.0
  Ru  Ru4  1  0.499999  0.500000  0.499999  1.0
