# generated using pymatgen
data_BeVFe2
_symmetry_space_group_name_H-M   'P 1'
_cell_length_a   3.89451852
_cell_length_b   3.89451608
_cell_length_c   3.89451819
_cell_angle_alpha   59.99963375
_cell_angle_beta   59.99963765
_cell_angle_gamma   59.99963861
_symmetry_Int_Tables_number   1
_chemical_formula_structural   BeVFe2
_chemical_formula_sum   'Be1 V1 Fe2'
_cell_volume   41.76788034
_cell_formula_units_Z   1
loop_
 _symmetry_equiv_pos_site_id
 _symmetry_equiv_pos_as_xyz
  1  'x, y, z'
loop_
 _atom_site_type_symbol
 _atom_site_label
 _atom_site_symmetry_multiplicity
 _atom_site_fract_x
 _atom_site_fract_y
 _atom_site_fract_z
 _atom_site_occupancy
  Be  Be1  1  0.250000  0.250000  0.250001  1.0
  V  V2  1  0.750000  0.749999  0.750000  1.0
  Fe  Fe3  1  0.000000  0.000000  0.000001  1.0
  Fe  Fe4  1  0.500000  0.500001  0.499998  1.0
