# generated using pymatgen
data_CaPrZn2
_symmetry_space_group_name_H-M   'P 1'
_cell_length_a   5.22430197
_cell_length_b   5.22430197
_cell_length_c   5.22430197
_cell_angle_alpha   60.00298995
_cell_angle_beta   60.00298995
_cell_angle_gamma   60.00298995
_symmetry_Int_Tables_number   1
_chemical_formula_structural   CaPrZn2
_chemical_formula_sum   'Ca1 Pr1 Zn2'
_cell_volume   100.83220310
_cell_formula_units_Z   1
loop_
 _symmetry_equiv_pos_site_id
 _symmetry_equiv_pos_as_xyz
  1  'x, y, z'
loop_
 _atom_site_type_symbol
 _atom_site_label
 _atom_site_symmetry_multiplicity
 _atom_site_fract_x
 _atom_site_fract_y
 _atom_site_fract_z
 _atom_site_occupancy
  Ca  Ca1  1  0.250000  0.250000  0.250000  1.0
  Pr  Pr2  1  0.750000  0.750000  0.750000  1.0
  Zn  Zn3  1  0.999940  0.999940  0.999940  1.0
  Zn  Zn4  1  0.500059  0.500059  0.500059  1.0
