# generated using pymatgen
data_ThGeO4
_symmetry_space_group_name_H-M   'P 1'
_cell_length_a   5.19111568
_cell_length_b   5.19111568
_cell_length_c   6.86933630
_cell_angle_alpha   112.20038208
_cell_angle_beta   112.20038205
_cell_angle_gamma   90.00000000
_symmetry_Int_Tables_number   1
_chemical_formula_structural   ThGeO4
_chemical_formula_sum   'Th2 Ge2 O8'
_cell_volume   156.46822996
_cell_formula_units_Z   2
loop_
 _symmetry_equiv_pos_site_id
 _symmetry_equiv_pos_as_xyz
  1  'x, y, z'
loop_
 _atom_site_type_symbol
 _atom_site_label
 _atom_site_symmetry_multiplicity
 _atom_site_fract_x
 _atom_site_fract_y
 _atom_site_fract_z
 _atom_site_occupancy
  Th  Th1  1  0.375000  0.125000  0.750000  1.0
  Th  Th2  1  0.625000  0.875000  0.250000  1.0
  Ge  Ge3  1  0.875000  0.625000  0.750000  1.0
  Ge  Ge4  1  0.125000  0.375000  0.250000  1.0
  O  O5  1  0.946794  0.290369  0.592622  1.0
  O  O6  1  0.302252  0.446794  0.092622  1.0
  O  O7  1  0.790369  0.145828  0.092622  1.0
  O  O8  1  0.645828  0.802252  0.592622  1.0
  O  O9  1  0.354172  0.197748  0.407378  1.0
  O  O10  1  0.209631  0.854172  0.907378  1.0
  O  O11  1  0.697748  0.553206  0.907378  1.0
  O  O12  1  0.053206  0.709631  0.407378  1.0
