# generated using pymatgen
data_HfAlFe2
_symmetry_space_group_name_H-M   'P 1'
_cell_length_a   4.26091424
_cell_length_b   4.26092186
_cell_length_c   4.26090108
_cell_angle_alpha   59.99956791
_cell_angle_beta   59.99965228
_cell_angle_gamma   59.99963730
_symmetry_Int_Tables_number   1
_chemical_formula_structural   HfAlFe2
_chemical_formula_sum   'Hf1 Al1 Fe2'
_cell_volume   54.70021925
_cell_formula_units_Z   1
loop_
 _symmetry_equiv_pos_site_id
 _symmetry_equiv_pos_as_xyz
  1  'x, y, z'
loop_
 _atom_site_type_symbol
 _atom_site_label
 _atom_site_symmetry_multiplicity
 _atom_site_fract_x
 _atom_site_fract_y
 _atom_site_fract_z
 _atom_site_occupancy
  Hf  Hf1  1  0.750000  0.750001  0.750000  1.0
  Al  Al2  1  0.250000  0.250001  0.250001  1.0
  Fe  Fe3  1  0.500002  0.499999  0.500001  1.0
  Fe  Fe4  1  0.000000  0.000001  0.000001  1.0
