# generated using pymatgen
data_TmLuCo2
_symmetry_space_group_name_H-M   'P 1'
_cell_length_a   4.63326291
_cell_length_b   4.63335163
_cell_length_c   4.63326854
_cell_angle_alpha   60.00029856
_cell_angle_beta   60.00074869
_cell_angle_gamma   60.00071485
_symmetry_Int_Tables_number   1
_chemical_formula_structural   TmLuCo2
_chemical_formula_sum   'Tm1 Lu1 Co2'
_cell_volume   70.33321387
_cell_formula_units_Z   1
loop_
 _symmetry_equiv_pos_site_id
 _symmetry_equiv_pos_as_xyz
  1  'x, y, z'
loop_
 _atom_site_type_symbol
 _atom_site_label
 _atom_site_symmetry_multiplicity
 _atom_site_fract_x
 _atom_site_fract_y
 _atom_site_fract_z
 _atom_site_occupancy
  Tm  Tm1  1  0.750001  0.750000  0.750001  1.0
  Lu  Lu2  1  0.249999  0.250002  0.249998  1.0
  Co  Co3  1  0.500001  0.499998  0.500001  1.0
  Co  Co4  1  0.999999  0.000000  0.000000  1.0
