# generated using pymatgen
data_NbFe2
_symmetry_space_group_name_H-M   'P 1'
_cell_length_a   4.76110540
_cell_length_b   4.76110540
_cell_length_c   7.89520587
_cell_angle_alpha   90.00000000
_cell_angle_beta   90.00000000
_cell_angle_gamma   120.01846114
_symmetry_Int_Tables_number   1
_chemical_formula_structural   NbFe2
_chemical_formula_sum   'Nb4 Fe8'
_cell_volume   154.96330200
_cell_formula_units_Z   4
loop_
 _symmetry_equiv_pos_site_id
 _symmetry_equiv_pos_as_xyz
  1  'x, y, z'
loop_
 _atom_site_type_symbol
 _atom_site_label
 _atom_site_symmetry_multiplicity
 _atom_site_fract_x
 _atom_site_fract_y
 _atom_site_fract_z
 _atom_site_occupancy
  Nb  Nb1  1  0.666650  0.333350  0.566215  1.0
  Nb  Nb2  1  0.333350  0.666650  0.433785  1.0
  Nb  Nb3  1  0.333350  0.666650  0.066215  1.0
  Nb  Nb4  1  0.666650  0.333350  0.933785  1.0
  Fe  Fe5  1  0.000000  0.000000  0.500000  1.0
  Fe  Fe6  1  0.000000  0.000000  0.000000  1.0
  Fe  Fe7  1  0.829935  0.659818  0.250000  1.0
  Fe  Fe8  1  0.829838  0.170162  0.250000  1.0
  Fe  Fe9  1  0.340182  0.170065  0.250000  1.0
  Fe  Fe10  1  0.170065  0.340182  0.750000  1.0
  Fe  Fe11  1  0.170162  0.829838  0.750000  1.0
  Fe  Fe12  1  0.659818  0.829935  0.750000  1.0
