# generated using pymatgen
data_CeYZn2
_symmetry_space_group_name_H-M   'P 1'
_cell_length_a   5.10495082
_cell_length_b   5.10494729
_cell_length_c   5.10495287
_cell_angle_alpha   59.99958189
_cell_angle_beta   59.99951582
_cell_angle_gamma   59.99943220
_symmetry_Int_Tables_number   1
_chemical_formula_structural   CeYZn2
_chemical_formula_sum   'Ce1 Y1 Zn2'
_cell_volume   94.07077864
_cell_formula_units_Z   1
loop_
 _symmetry_equiv_pos_site_id
 _symmetry_equiv_pos_as_xyz
  1  'x, y, z'
loop_
 _atom_site_type_symbol
 _atom_site_label
 _atom_site_symmetry_multiplicity
 _atom_site_fract_x
 _atom_site_fract_y
 _atom_site_fract_z
 _atom_site_occupancy
  Ce  Ce1  1  0.250000  0.250000  0.250000  1.0
  Y  Y2  1  0.750001  0.750001  0.750001  1.0
  Zn  Zn3  1  0.000000  0.000000  0.000000  1.0
  Zn  Zn4  1  0.500001  0.500001  0.500001  1.0
