# generated using pymatgen
data_Be2Cr
_symmetry_space_group_name_H-M   'P 1'
_cell_length_a   4.19881458
_cell_length_b   4.19881475
_cell_length_c   6.91091684
_cell_angle_alpha   90.00000000
_cell_angle_beta   90.00000000
_cell_angle_gamma   119.99999865
_symmetry_Int_Tables_number   1
_chemical_formula_structural   Be2Cr
_chemical_formula_sum   'Be8 Cr4'
_cell_volume   105.51633923
_cell_formula_units_Z   4
loop_
 _symmetry_equiv_pos_site_id
 _symmetry_equiv_pos_as_xyz
  1  'x, y, z'
loop_
 _atom_site_type_symbol
 _atom_site_label
 _atom_site_symmetry_multiplicity
 _atom_site_fract_x
 _atom_site_fract_y
 _atom_site_fract_z
 _atom_site_occupancy
  Be  Be1  1  0.170162  0.340324  0.750000  1.0
  Be  Be2  1  0.170162  0.829838  0.750000  1.0
  Be  Be3  1  0.340324  0.170162  0.250000  1.0
  Be  Be4  1  0.829838  0.659676  0.250000  1.0
  Be  Be5  1  0.000000  0.000000  0.000000  1.0
  Be  Be6  1  0.659676  0.829838  0.750000  1.0
  Be  Be7  1  0.829838  0.170162  0.250000  1.0
  Be  Be8  1  0.000000  0.000000  0.500000  1.0
  Cr  Cr9  1  0.333333  0.666667  0.439444  1.0
  Cr  Cr10  1  0.666667  0.333333  0.939444  1.0
  Cr  Cr11  1  0.333333  0.666667  0.060556  1.0
  Cr  Cr12  1  0.666667  0.333333  0.560556  1.0
