# generated using pymatgen
data_AgSbSe2
_symmetry_space_group_name_H-M   'P 1'
_cell_length_a   8.11690422
_cell_length_b   10.81685288
_cell_length_c   7.14859182
_cell_angle_alpha   29.07301019
_cell_angle_beta   55.40809156
_cell_angle_gamma   41.37545928
_symmetry_Int_Tables_number   1
_chemical_formula_structural   AgSbSe2
_chemical_formula_sum   'Ag2 Sb2 Se4'
_cell_volume   193.85787170
_cell_formula_units_Z   2
loop_
 _symmetry_equiv_pos_site_id
 _symmetry_equiv_pos_as_xyz
  1  'x, y, z'
loop_
 _atom_site_type_symbol
 _atom_site_label
 _atom_site_symmetry_multiplicity
 _atom_site_fract_x
 _atom_site_fract_y
 _atom_site_fract_z
 _atom_site_occupancy
  Ag  Ag1  1  0.250013  0.500000  0.000000  1.0
  Ag  Ag2  1  0.499987  0.000000  0.000000  1.0
  Sb  Sb3  1  0.000067  0.000000  0.000000  1.0
  Sb  Sb4  1  0.749933  0.500000  0.000000  1.0
  Se  Se5  1  0.246612  0.000003  0.506801  1.0
  Se  Se6  1  0.503388  0.499997  0.493199  1.0
  Se  Se7  1  0.996580  0.500003  0.506801  1.0
  Se  Se8  1  0.753420  0.999997  0.493199  1.0
