# generated using pymatgen
data_UBrN
_symmetry_space_group_name_H-M   'P 1'
_cell_length_a   3.84005279
_cell_length_b   3.84005279
_cell_length_c   8.70543390
_cell_angle_alpha   90.00000000
_cell_angle_beta   90.00000000
_cell_angle_gamma   90.00000000
_symmetry_Int_Tables_number   1
_chemical_formula_structural   UBrN
_chemical_formula_sum   'U2 Br2 N2'
_cell_volume   128.37037556
_cell_formula_units_Z   2
loop_
 _symmetry_equiv_pos_site_id
 _symmetry_equiv_pos_as_xyz
  1  'x, y, z'
loop_
 _atom_site_type_symbol
 _atom_site_label
 _atom_site_symmetry_multiplicity
 _atom_site_fract_x
 _atom_site_fract_y
 _atom_site_fract_z
 _atom_site_occupancy
  U  U1  1  0.250000  0.250000  0.133855  1.0
  U  U2  1  0.750000  0.750000  0.866145  1.0
  Br  Br3  1  0.250000  0.250000  0.662537  1.0
  Br  Br4  1  0.750000  0.750000  0.337463  1.0
  N  N5  1  0.250000  0.750000  0.000000  1.0
  N  N6  1  0.750000  0.250000  0.000000  1.0
