# generated using pymatgen
data_SrAg2
_symmetry_space_group_name_H-M   'P 1'
_cell_length_a   4.89748925
_cell_length_b   6.20861059
_cell_length_c   6.20861059
_cell_angle_alpha   77.73994350
_cell_angle_beta   66.77075219
_cell_angle_gamma   66.77075218
_symmetry_Int_Tables_number   1
_chemical_formula_structural   SrAg2
_chemical_formula_sum   'Sr2 Ag4'
_cell_volume   159.05480153
_cell_formula_units_Z   2
loop_
 _symmetry_equiv_pos_site_id
 _symmetry_equiv_pos_as_xyz
  1  'x, y, z'
loop_
 _atom_site_type_symbol
 _atom_site_label
 _atom_site_symmetry_multiplicity
 _atom_site_fract_x
 _atom_site_fract_y
 _atom_site_fract_z
 _atom_site_occupancy
  Sr  Sr1  1  0.042496  0.207504  0.707504  1.0
  Sr  Sr2  1  0.957504  0.792496  0.292496  1.0
  Ag  Ag3  1  0.336407  0.610050  0.717136  1.0
  Ag  Ag4  1  0.663593  0.389950  0.282864  1.0
  Ag  Ag5  1  0.336407  0.217136  0.110050  1.0
  Ag  Ag6  1  0.663593  0.782864  0.889950  1.0
