# generated using pymatgen
data_Rb2Pd3S4
_symmetry_space_group_name_H-M   'P 1'
_cell_length_a   6.27142622
_cell_length_b   6.24687436
_cell_length_c   7.41485001
_cell_angle_alpha   102.55155359
_cell_angle_beta   102.69362230
_cell_angle_gamma   118.83422578
_symmetry_Int_Tables_number   1
_chemical_formula_structural   Rb2Pd3S4
_chemical_formula_sum   'Rb2 Pd3 S4'
_cell_volume   229.80634695
_cell_formula_units_Z   1
loop_
 _symmetry_equiv_pos_site_id
 _symmetry_equiv_pos_as_xyz
  1  'x, y, z'
loop_
 _atom_site_type_symbol
 _atom_site_label
 _atom_site_symmetry_multiplicity
 _atom_site_fract_x
 _atom_site_fract_y
 _atom_site_fract_z
 _atom_site_occupancy
  Rb  Rb1  1  0.158646  0.158648  0.317300  1.0
  Rb  Rb2  1  0.841354  0.841352  0.682700  1.0
  Pd  Pd3  1  0.500000  0.500000  0.000000  1.0
  Pd  Pd4  1  0.500000  0.000000  0.000000  1.0
  Pd  Pd5  1  0.000000  0.500000  0.000000  1.0
  S  S6  1  0.783353  0.447189  0.229296  1.0
  S  S7  1  0.216647  0.552811  0.770704  1.0
  S  S8  1  0.554052  0.217878  0.770698  1.0
  S  S9  1  0.445948  0.782122  0.229302  1.0
