# generated using pymatgen
data_LaAl4
_symmetry_space_group_name_H-M   'P 1'
_cell_length_a   4.39165983
_cell_length_b   8.85397819
_cell_length_c   8.85397821
_cell_angle_alpha   78.79857455
_cell_angle_beta   75.64051912
_cell_angle_gamma   75.64051998
_symmetry_Int_Tables_number   1
_chemical_formula_structural   LaAl4
_chemical_formula_sum   'La3 Al12'
_cell_volume   319.85119960
_cell_formula_units_Z   3
loop_
 _symmetry_equiv_pos_site_id
 _symmetry_equiv_pos_as_xyz
  1  'x, y, z'
loop_
 _atom_site_type_symbol
 _atom_site_label
 _atom_site_symmetry_multiplicity
 _atom_site_fract_x
 _atom_site_fract_y
 _atom_site_fract_z
 _atom_site_occupancy
  La  La1  1  0.666791  0.334401  0.332016  1.0
  La  La2  1  0.333209  0.667984  0.665599  1.0
  La  La3  1  0.000000  0.995540  0.004460  1.0
  Al  Al4  1  0.163244  0.083726  0.589787  1.0
  Al  Al5  1  0.000000  0.616533  0.383467  1.0
  Al  Al6  1  0.331180  0.052292  0.285349  1.0
  Al  Al7  1  0.500000  0.749147  0.250853  1.0
  Al  Al8  1  0.830115  0.919725  0.420045  1.0
  Al  Al9  1  0.000000  0.388265  0.611735  1.0
  Al  Al10  1  0.664417  0.947458  0.723708  1.0
  Al  Al11  1  0.335583  0.276292  0.052542  1.0
  Al  Al12  1  0.668820  0.714651  0.947708  1.0
  Al  Al13  1  0.500000  0.252818  0.747182  1.0
  Al  Al14  1  0.169885  0.579955  0.080275  1.0
  Al  Al15  1  0.836756  0.410213  0.916274  1.0
