# generated using pymatgen
data_ScUS2
_symmetry_space_group_name_H-M   'P 1'
_cell_length_a   7.55999277
_cell_length_b   9.99267675
_cell_length_c   6.53453175
_cell_angle_alpha   29.21999886
_cell_angle_beta   54.65736298
_cell_angle_gamma   40.83871574
_symmetry_Int_Tables_number   1
_chemical_formula_structural   ScUS2
_chemical_formula_sum   'Sc2 U2 S4'
_cell_volume   152.32162972
_cell_formula_units_Z   2
loop_
 _symmetry_equiv_pos_site_id
 _symmetry_equiv_pos_as_xyz
  1  'x, y, z'
loop_
 _atom_site_type_symbol
 _atom_site_label
 _atom_site_symmetry_multiplicity
 _atom_site_fract_x
 _atom_site_fract_y
 _atom_site_fract_z
 _atom_site_occupancy
  Sc  Sc1  1  0.500000  0.000000  0.000000  1.0
  Sc  Sc2  1  0.250000  0.500000  0.000000  1.0
  U  U3  1  0.000000  0.000000  0.000000  1.0
  U  U4  1  0.750000  0.500000  0.000000  1.0
  S  S5  1  0.005455  0.500000  0.489090  1.0
  S  S6  1  0.494545  0.500000  0.510910  1.0
  S  S7  1  0.255455  0.000000  0.489090  1.0
  S  S8  1  0.744545  0.000000  0.510910  1.0
