# generated using pymatgen
data_CdAs2
_symmetry_space_group_name_H-M   'P 1'
_cell_length_a   4.76774686
_cell_length_b   6.24081669
_cell_length_c   6.24081669
_cell_angle_alpha   81.61005077
_cell_angle_beta   67.54355521
_cell_angle_gamma   67.54355518
_symmetry_Int_Tables_number   1
_chemical_formula_structural   CdAs2
_chemical_formula_sum   'Cd2 As4'
_cell_volume   158.59881515
_cell_formula_units_Z   2
loop_
 _symmetry_equiv_pos_site_id
 _symmetry_equiv_pos_as_xyz
  1  'x, y, z'
loop_
 _atom_site_type_symbol
 _atom_site_label
 _atom_site_symmetry_multiplicity
 _atom_site_fract_x
 _atom_site_fract_y
 _atom_site_fract_z
 _atom_site_occupancy
  Cd  Cd1  1  0.250000  0.500000  0.500000  1.0
  Cd  Cd2  1  0.000000  0.000000  0.000000  1.0
  As  As3  1  0.686942  0.188058  0.688058  1.0
  As  As4  1  0.625000  0.811942  0.688058  1.0
  As  As5  1  0.563058  0.811942  0.311942  1.0
  As  As6  1  0.125000  0.188058  0.311942  1.0
