# generated using pymatgen
data_Sr5(SiN3)2
_symmetry_space_group_name_H-M   'P 1'
_cell_length_a   6.05919433
_cell_length_b   6.53378079
_cell_length_c   13.44081340
_cell_angle_alpha   90.00000092
_cell_angle_beta   98.54890616
_cell_angle_gamma   122.62664335
_symmetry_Int_Tables_number   1
_chemical_formula_structural   Sr5(SiN3)2
_chemical_formula_sum   'Sr10 Si4 N12'
_cell_volume   441.11156580
_cell_formula_units_Z   2
loop_
 _symmetry_equiv_pos_site_id
 _symmetry_equiv_pos_as_xyz
  1  'x, y, z'
loop_
 _atom_site_type_symbol
 _atom_site_label
 _atom_site_symmetry_multiplicity
 _atom_site_fract_x
 _atom_site_fract_y
 _atom_site_fract_z
 _atom_site_occupancy
  Sr  Sr1  1  0.000000  0.387197  0.750000  1.0
  Sr  Sr2  1  0.000000  0.612803  0.250000  1.0
  Sr  Sr3  1  0.118227  0.795207  0.995099  1.0
  Sr  Sr4  1  0.881773  0.676979  0.504901  1.0
  Sr  Sr5  1  0.881773  0.204793  0.004901  1.0
  Sr  Sr6  1  0.118227  0.323021  0.495099  1.0
  Sr  Sr7  1  0.310022  0.078572  0.714311  1.0
  Sr  Sr8  1  0.689978  0.768550  0.785689  1.0
  Sr  Sr9  1  0.689978  0.921428  0.285689  1.0
  Sr  Sr10  1  0.310022  0.231450  0.214311  1.0
  Si  Si11  1  0.550727  0.910685  0.574362  1.0
  Si  Si12  1  0.449273  0.359958  0.925638  1.0
  Si  Si13  1  0.449273  0.089315  0.425638  1.0
  Si  Si14  1  0.550727  0.640042  0.074362  1.0
  N  N15  1  0.304832  0.708323  0.644313  1.0
  N  N16  1  0.695168  0.403492  0.855687  1.0
  N  N17  1  0.695168  0.291677  0.355687  1.0
  N  N18  1  0.304832  0.596508  0.144313  1.0
  N  N19  1  0.556006  0.194689  0.558416  1.0
  N  N20  1  0.443994  0.638683  0.941584  1.0
  N  N21  1  0.443994  0.805311  0.441584  1.0
  N  N22  1  0.556006  0.361317  0.058416  1.0
  N  N23  1  0.870043  0.986495  0.625371  1.0
  N  N24  1  0.129957  0.116452  0.874629  1.0
  N  N25  1  0.129957  0.013505  0.374629  1.0
  N  N26  1  0.870043  0.883548  0.125371  1.0
