# generated using pymatgen
data_SiO2
_symmetry_space_group_name_H-M   'P 1'
_cell_length_a   5.32935329
_cell_length_b   5.32889852
_cell_length_c   5.32925024
_cell_angle_alpha   97.59434564
_cell_angle_beta   97.59465769
_cell_angle_gamma   97.59568333
_symmetry_Int_Tables_number   1
_chemical_formula_structural   SiO2
_chemical_formula_sum   'Si3 O6'
_cell_volume   146.96999691
_cell_formula_units_Z   3
loop_
 _symmetry_equiv_pos_site_id
 _symmetry_equiv_pos_as_xyz
  1  'x, y, z'
loop_
 _atom_site_type_symbol
 _atom_site_label
 _atom_site_symmetry_multiplicity
 _atom_site_fract_x
 _atom_site_fract_y
 _atom_site_fract_z
 _atom_site_occupancy
  Si  Si1  1  0.715458  0.284509  0.499949  1.0
  Si  Si2  1  0.500042  0.715499  0.284539  1.0
  Si  Si3  1  0.284519  0.500009  0.715485  1.0
  O  O4  1  0.308689  0.691281  0.500029  1.0
  O  O5  1  0.499978  0.308713  0.691309  1.0
  O  O6  1  0.691295  0.499990  0.308716  1.0
  O  O7  1  0.000048  0.332828  0.667211  1.0
  O  O8  1  0.667184  0.000001  0.332817  1.0
  O  O9  1  0.332788  0.667168  0.999946  1.0
