# generated using pymatgen
data_GaCuS2
_symmetry_space_group_name_H-M   'P 1'
_cell_length_a   5.36973001
_cell_length_b   5.36973001
_cell_length_c   6.53254767
_cell_angle_alpha   114.26755760
_cell_angle_beta   114.26755760
_cell_angle_gamma   90.00000000
_symmetry_Int_Tables_number   1
_chemical_formula_structural   GaCuS2
_chemical_formula_sum   'Ga2 Cu2 S4'
_cell_volume   153.27426984
_cell_formula_units_Z   2
loop_
 _symmetry_equiv_pos_site_id
 _symmetry_equiv_pos_as_xyz
  1  'x, y, z'
loop_
 _atom_site_type_symbol
 _atom_site_label
 _atom_site_symmetry_multiplicity
 _atom_site_fract_x
 _atom_site_fract_y
 _atom_site_fract_z
 _atom_site_occupancy
  Ga  Ga1  1  0.750000  0.250000  0.500000  1.0
  Ga  Ga2  1  0.500000  0.500000  0.000000  1.0
  Cu  Cu3  1  0.250000  0.750000  0.500000  1.0
  Cu  Cu4  1  0.000000  0.000000  0.000000  1.0
  S  S5  1  0.125000  0.625660  0.750000  1.0
  S  S6  1  0.625000  0.124340  0.750000  1.0
  S  S7  1  0.374340  0.375000  0.250000  1.0
  S  S8  1  0.875660  0.875000  0.250000  1.0
