# generated using pymatgen
data_MnPO4
_symmetry_space_group_name_H-M   'P 1'
_cell_length_a   5.24484595
_cell_length_b   9.04500051
_cell_length_c   5.24484624
_cell_angle_alpha   68.69982466
_cell_angle_beta   56.48062599
_cell_angle_gamma   68.69983076
_symmetry_Int_Tables_number   1
_chemical_formula_structural   MnPO4
_chemical_formula_sum   'Mn2 P2 O8'
_cell_volume   188.98071028
_cell_formula_units_Z   2
loop_
 _symmetry_equiv_pos_site_id
 _symmetry_equiv_pos_as_xyz
  1  'x, y, z'
loop_
 _atom_site_type_symbol
 _atom_site_label
 _atom_site_symmetry_multiplicity
 _atom_site_fract_x
 _atom_site_fract_y
 _atom_site_fract_z
 _atom_site_occupancy
  Mn  Mn1  1  0.206668  0.252908  0.288696  1.0
  Mn  Mn2  1  0.788696  0.752908  0.706668  1.0
  P  P3  1  0.156965  0.626267  0.093547  1.0
  P  P4  1  0.593547  0.126267  0.656965  1.0
  O  O5  1  0.037570  0.764900  0.265418  1.0
  O  O6  1  0.215846  0.460006  0.303852  1.0
  O  O7  1  0.290106  0.158219  0.966436  1.0
  O  O8  1  0.513274  0.120743  0.417983  1.0
  O  O9  1  0.466436  0.658219  0.790106  1.0
  O  O10  1  0.765418  0.264900  0.537570  1.0
  O  O11  1  0.917983  0.620743  0.013274  1.0
  O  O12  1  0.803852  0.960006  0.715846  1.0
