# generated using pymatgen
data_CrO3
_symmetry_space_group_name_H-M   'P 1'
_cell_length_a   4.99066830
_cell_length_b   5.28425121
_cell_length_c   5.83320676
_cell_angle_alpha   90.00000000
_cell_angle_beta   90.00000000
_cell_angle_gamma   118.14306267
_symmetry_Int_Tables_number   1
_chemical_formula_structural   CrO3
_chemical_formula_sum   'Cr2 O6'
_cell_volume   135.64573304
_cell_formula_units_Z   2
loop_
 _symmetry_equiv_pos_site_id
 _symmetry_equiv_pos_as_xyz
  1  'x, y, z'
loop_
 _atom_site_type_symbol
 _atom_site_label
 _atom_site_symmetry_multiplicity
 _atom_site_fract_x
 _atom_site_fract_y
 _atom_site_fract_z
 _atom_site_occupancy
  Cr  Cr1  1  0.579708  0.177690  0.250000  1.0
  Cr  Cr2  1  0.402234  0.822286  0.750000  1.0
  O  O3  1  0.716930  0.815004  0.750000  1.0
  O  O4  1  0.132265  0.501096  0.750000  1.0
  O  O5  1  0.630601  0.498890  0.250000  1.0
  O  O6  1  0.901696  0.184999  0.250000  1.0
  O  O7  1  0.377283  0.000018  0.000002  1.0
  O  O8  1  0.377283  0.000018  0.499998  1.0
