# generated using pymatgen
data_Al2CdTe4
_symmetry_space_group_name_H-M   'P 1'
_cell_length_a   6.29042164
_cell_length_b   6.29042164
_cell_length_c   7.45145919
_cell_angle_alpha   114.96681547
_cell_angle_beta   114.96681544
_cell_angle_gamma   89.99999994
_symmetry_Int_Tables_number   1
_chemical_formula_structural   Al2CdTe4
_chemical_formula_sum   'Al2 Cd1 Te4'
_cell_volume   236.55601965
_cell_formula_units_Z   1
loop_
 _symmetry_equiv_pos_site_id
 _symmetry_equiv_pos_as_xyz
  1  'x, y, z'
loop_
 _atom_site_type_symbol
 _atom_site_label
 _atom_site_symmetry_multiplicity
 _atom_site_fract_x
 _atom_site_fract_y
 _atom_site_fract_z
 _atom_site_occupancy
  Al  Al1  1  0.250000  0.750000  0.500000  1.0
  Al  Al2  1  0.500000  0.500000  0.000000  1.0
  Cd  Cd3  1  0.000000  0.000000  0.000000  1.0
  Te  Te4  1  0.410134  0.394680  0.274843  1.0
  Te  Te5  1  0.119837  0.589866  0.725157  1.0
  Te  Te6  1  0.605320  0.135291  0.725157  1.0
  Te  Te7  1  0.864709  0.880163  0.274843  1.0
