# generated using pymatgen
data_PdF4
_symmetry_space_group_name_H-M   'P 1'
_cell_length_a   5.58209415
_cell_length_b   5.58209415
_cell_length_c   5.64944042
_cell_angle_alpha   106.86743859
_cell_angle_beta   106.86743856
_cell_angle_gamma   114.37341818
_symmetry_Int_Tables_number   1
_chemical_formula_structural   PdF4
_chemical_formula_sum   'Pd2 F8'
_cell_volume   135.42377488
_cell_formula_units_Z   2
loop_
 _symmetry_equiv_pos_site_id
 _symmetry_equiv_pos_as_xyz
  1  'x, y, z'
loop_
 _atom_site_type_symbol
 _atom_site_label
 _atom_site_symmetry_multiplicity
 _atom_site_fract_x
 _atom_site_fract_y
 _atom_site_fract_z
 _atom_site_occupancy
  Pd  Pd1  1  0.738206  0.238206  0.500000  1.0
  Pd  Pd2  1  0.988206  0.988206  0.000000  1.0
  F  F3  1  0.979329  0.759719  0.188878  1.0
  F  F4  1  0.570841  0.790451  0.811122  1.0
  F  F5  1  0.009459  0.290733  0.311568  1.0
  F  F6  1  0.979165  0.697891  0.688432  1.0
  F  F7  1  0.040733  0.259459  0.811568  1.0
  F  F8  1  0.447891  0.229165  0.188432  1.0
  F  F9  1  0.540451  0.820841  0.311122  1.0
  F  F10  1  0.509719  0.229329  0.688878  1.0
