# generated using pymatgen
data_Rb2NaInF6
_symmetry_space_group_name_H-M   'P 1'
_cell_length_a   6.26539117
_cell_length_b   6.26539126
_cell_length_c   6.26539126
_cell_angle_alpha   59.99999965
_cell_angle_beta   59.99999945
_cell_angle_gamma   59.99999947
_symmetry_Int_Tables_number   1
_chemical_formula_structural   Rb2NaInF6
_chemical_formula_sum   'Rb2 Na1 In1 F6'
_cell_volume   173.91201300
_cell_formula_units_Z   1
loop_
 _symmetry_equiv_pos_site_id
 _symmetry_equiv_pos_as_xyz
  1  'x, y, z'
loop_
 _atom_site_type_symbol
 _atom_site_label
 _atom_site_symmetry_multiplicity
 _atom_site_fract_x
 _atom_site_fract_y
 _atom_site_fract_z
 _atom_site_occupancy
  Rb  Rb1  1  0.250000  0.250000  0.250000  1.0
  Rb  Rb2  1  0.750000  0.750000  0.750000  1.0
  Na  Na3  1  0.500000  0.500000  0.500000  1.0
  In  In4  1  0.000000  0.000000  0.000000  1.0
  F  F5  1  0.238291  0.761709  0.238291  1.0
  F  F6  1  0.761709  0.761709  0.238291  1.0
  F  F7  1  0.761709  0.238291  0.761709  1.0
  F  F8  1  0.761709  0.238291  0.238291  1.0
  F  F9  1  0.238291  0.761709  0.761709  1.0
  F  F10  1  0.238291  0.238291  0.761709  1.0
