# generated using pymatgen
data_NaSmO2
_symmetry_space_group_name_H-M   'P 1'
_cell_length_a   4.71907282
_cell_length_b   4.71907282
_cell_length_c   6.34440624
_cell_angle_alpha   68.16665857
_cell_angle_beta   68.16665857
_cell_angle_gamma   90.00000000
_symmetry_Int_Tables_number   1
_chemical_formula_structural   NaSmO2
_chemical_formula_sum   'Na2 Sm2 O4'
_cell_volume   120.16672312
_cell_formula_units_Z   2
loop_
 _symmetry_equiv_pos_site_id
 _symmetry_equiv_pos_as_xyz
  1  'x, y, z'
loop_
 _atom_site_type_symbol
 _atom_site_label
 _atom_site_symmetry_multiplicity
 _atom_site_fract_x
 _atom_site_fract_y
 _atom_site_fract_z
 _atom_site_occupancy
  Na  Na1  1  0.500000  0.500000  0.000000  1.0
  Na  Na2  1  0.250000  0.750000  0.500000  1.0
  Sm  Sm3  1  0.000000  0.000000  0.000000  1.0
  Sm  Sm4  1  0.750000  0.250000  0.500000  1.0
  O  O5  1  0.219888  0.219888  0.560223  1.0
  O  O6  1  0.530112  0.030112  0.939777  1.0
  O  O7  1  0.969888  0.469888  0.060223  1.0
  O  O8  1  0.780112  0.780112  0.439777  1.0
