# generated using pymatgen
data_Zr2SeN2
_symmetry_space_group_name_H-M   'P 1'
_cell_length_a   3.67699605
_cell_length_b   3.67699605
_cell_length_c   6.70693300
_cell_angle_alpha   90.00000000
_cell_angle_beta   90.00000000
_cell_angle_gamma   120.00000085
_symmetry_Int_Tables_number   1
_chemical_formula_structural   Zr2SeN2
_chemical_formula_sum   'Zr2 Se1 N2'
_cell_volume   78.53096290
_cell_formula_units_Z   1
loop_
 _symmetry_equiv_pos_site_id
 _symmetry_equiv_pos_as_xyz
  1  'x, y, z'
loop_
 _atom_site_type_symbol
 _atom_site_label
 _atom_site_symmetry_multiplicity
 _atom_site_fract_x
 _atom_site_fract_y
 _atom_site_fract_z
 _atom_site_occupancy
  Zr  Zr1  1  0.666667  0.333333  0.695655  1.0
  Zr  Zr2  1  0.333333  0.666667  0.304345  1.0
  Se  Se3  1  0.000000  0.000000  0.000000  1.0
  N  N4  1  0.666667  0.333333  0.368203  1.0
  N  N5  1  0.333333  0.666667  0.631797  1.0
