# generated using pymatgen
data_CdHgO2
_symmetry_space_group_name_H-M   'P 1'
_cell_length_a   3.56753809
_cell_length_b   3.56753712
_cell_length_c   6.48421927
_cell_angle_alpha   101.86420905
_cell_angle_beta   101.86420916
_cell_angle_gamma   59.85586627
_symmetry_Int_Tables_number   1
_chemical_formula_structural   CdHgO2
_chemical_formula_sum   'Cd1 Hg1 O2'
_cell_volume   69.32905638
_cell_formula_units_Z   1
loop_
 _symmetry_equiv_pos_site_id
 _symmetry_equiv_pos_as_xyz
  1  'x, y, z'
loop_
 _atom_site_type_symbol
 _atom_site_label
 _atom_site_symmetry_multiplicity
 _atom_site_fract_x
 _atom_site_fract_y
 _atom_site_fract_z
 _atom_site_occupancy
  Cd  Cd1  1  0.000000  0.000000  0.000000  1.0
  Hg  Hg2  1  0.500000  0.500000  0.500000  1.0
  O  O3  1  0.621294  0.621294  0.817614  1.0
  O  O4  1  0.378706  0.378706  0.182386  1.0
