# generated using pymatgen
data_U2Ti
_symmetry_space_group_name_H-M   'P 1'
_cell_length_a   2.80217867
_cell_length_b   4.78942716
_cell_length_c   4.78868515
_cell_angle_alpha   120.00512684
_cell_angle_beta   90.00000000
_cell_angle_gamma   90.00000000
_symmetry_Int_Tables_number   1
_chemical_formula_structural   U2Ti
_chemical_formula_sum   'U2 Ti1'
_cell_volume   55.65495967
_cell_formula_units_Z   1
loop_
 _symmetry_equiv_pos_site_id
 _symmetry_equiv_pos_as_xyz
  1  'x, y, z'
loop_
 _atom_site_type_symbol
 _atom_site_label
 _atom_site_symmetry_multiplicity
 _atom_site_fract_x
 _atom_site_fract_y
 _atom_site_fract_z
 _atom_site_occupancy
  U  U1  1  0.500000  0.333270  0.666618  1.0
  U  U2  1  0.500000  0.666652  0.333382  1.0
  Ti  Ti3  1  0.000000  0.999978  0.000000  1.0
