# generated using pymatgen
data_Er2MgGe2
_symmetry_space_group_name_H-M   'P 1'
_cell_length_a   4.22270761
_cell_length_b   7.21530037
_cell_length_c   7.21530037
_cell_angle_alpha   90.00000000
_cell_angle_beta   90.00000000
_cell_angle_gamma   90.00000000
_symmetry_Int_Tables_number   1
_chemical_formula_structural   Er2MgGe2
_chemical_formula_sum   'Er4 Mg2 Ge4'
_cell_volume   219.83652048
_cell_formula_units_Z   2
loop_
 _symmetry_equiv_pos_site_id
 _symmetry_equiv_pos_as_xyz
  1  'x, y, z'
loop_
 _atom_site_type_symbol
 _atom_site_label
 _atom_site_symmetry_multiplicity
 _atom_site_fract_x
 _atom_site_fract_y
 _atom_site_fract_z
 _atom_site_occupancy
  Er  Er1  1  0.500000  0.177230  0.677230  1.0
  Er  Er2  1  0.500000  0.822770  0.322770  1.0
  Er  Er3  1  0.500000  0.322770  0.177230  1.0
  Er  Er4  1  0.500000  0.677230  0.822770  1.0
  Mg  Mg5  1  0.000000  0.500000  0.500000  1.0
  Mg  Mg6  1  0.000000  0.000000  0.000000  1.0
  Ge  Ge7  1  0.000000  0.375674  0.875674  1.0
  Ge  Ge8  1  0.000000  0.624326  0.124326  1.0
  Ge  Ge9  1  0.000000  0.124326  0.375674  1.0
  Ge  Ge10  1  0.000000  0.875674  0.624326  1.0
