# generated using pymatgen
data_Rb2LiTlCl6
_symmetry_space_group_name_H-M   'P 1'
_cell_length_a   7.39180178
_cell_length_b   7.39180208
_cell_length_c   7.39180206
_cell_angle_alpha   59.99999895
_cell_angle_beta   59.99999848
_cell_angle_gamma   59.99999856
_symmetry_Int_Tables_number   1
_chemical_formula_structural   Rb2LiTlCl6
_chemical_formula_sum   'Rb2 Li1 Tl1 Cl6'
_cell_volume   285.58537278
_cell_formula_units_Z   1
loop_
 _symmetry_equiv_pos_site_id
 _symmetry_equiv_pos_as_xyz
  1  'x, y, z'
loop_
 _atom_site_type_symbol
 _atom_site_label
 _atom_site_symmetry_multiplicity
 _atom_site_fract_x
 _atom_site_fract_y
 _atom_site_fract_z
 _atom_site_occupancy
  Rb  Rb1  1  0.250000  0.250000  0.250000  1.0
  Rb  Rb2  1  0.750000  0.750000  0.750000  1.0
  Li  Li3  1  0.500000  0.500000  0.500000  1.0
  Tl  Tl4  1  0.000000  0.000000  0.000000  1.0
  Cl  Cl5  1  0.250933  0.749067  0.250933  1.0
  Cl  Cl6  1  0.749067  0.749067  0.250933  1.0
  Cl  Cl7  1  0.749067  0.250933  0.749067  1.0
  Cl  Cl8  1  0.749067  0.250933  0.250933  1.0
  Cl  Cl9  1  0.250933  0.749067  0.749067  1.0
  Cl  Cl10  1  0.250933  0.250933  0.749067  1.0
