# generated using pymatgen
data_BiPd2Pb
_symmetry_space_group_name_H-M   'P 1'
_cell_length_a   5.66882060
_cell_length_b   5.74745020
_cell_length_c   5.74745020
_cell_angle_alpha   100.73718242
_cell_angle_beta   101.69892682
_cell_angle_gamma   101.69892681
_symmetry_Int_Tables_number   1
_chemical_formula_structural   BiPd2Pb
_chemical_formula_sum   'Bi2 Pd4 Pb2'
_cell_volume   174.43677167
_cell_formula_units_Z   2
loop_
 _symmetry_equiv_pos_site_id
 _symmetry_equiv_pos_as_xyz
  1  'x, y, z'
loop_
 _atom_site_type_symbol
 _atom_site_label
 _atom_site_symmetry_multiplicity
 _atom_site_fract_x
 _atom_site_fract_y
 _atom_site_fract_z
 _atom_site_occupancy
  Bi  Bi1  1  0.572688  0.053975  0.505593  1.0
  Bi  Bi2  1  0.572688  0.505593  0.053975  1.0
  Pd  Pd3  1  0.129640  0.658628  0.171282  1.0
  Pd  Pd4  1  0.129640  0.171282  0.658628  1.0
  Pd  Pd5  1  0.464261  0.960309  0.960309  1.0
  Pd  Pd6  1  0.476636  0.552191  0.552191  1.0
  Pb  Pb7  1  0.011109  0.127012  0.127012  1.0
  Pb  Pb8  1  0.007337  0.640010  0.640010  1.0
