# generated using pymatgen
data_TiMn2Ge
_symmetry_space_group_name_H-M   'P 1'
_cell_length_a   4.15198610
_cell_length_b   4.15258731
_cell_length_c   4.15188471
_cell_angle_alpha   60.02238908
_cell_angle_beta   59.97845601
_cell_angle_gamma   59.99588760
_symmetry_Int_Tables_number   1
_chemical_formula_structural   TiMn2Ge
_chemical_formula_sum   'Ti1 Mn2 Ge1'
_cell_volume   50.61673145
_cell_formula_units_Z   1
loop_
 _symmetry_equiv_pos_site_id
 _symmetry_equiv_pos_as_xyz
  1  'x, y, z'
loop_
 _atom_site_type_symbol
 _atom_site_label
 _atom_site_symmetry_multiplicity
 _atom_site_fract_x
 _atom_site_fract_y
 _atom_site_fract_z
 _atom_site_occupancy
  Ti  Ti1  1  0.749963  0.749983  0.750002  1.0
  Mn  Mn2  1  0.499956  0.500091  0.500051  1.0
  Mn  Mn3  1  0.000037  0.999973  0.999953  1.0
  Ge  Ge4  1  0.250042  0.249951  0.249992  1.0
