# generated using pymatgen
data_Al(CoSi)2
_symmetry_space_group_name_H-M   'P 1'
_cell_length_a   3.93035123
_cell_length_b   3.93035123
_cell_length_c   4.63125175
_cell_angle_alpha   90.00000000
_cell_angle_beta   90.00000000
_cell_angle_gamma   120.00000007
_symmetry_Int_Tables_number   1
_chemical_formula_structural   Al(CoSi)2
_chemical_formula_sum   'Al1 Co2 Si2'
_cell_volume   61.95719465
_cell_formula_units_Z   1
loop_
 _symmetry_equiv_pos_site_id
 _symmetry_equiv_pos_as_xyz
  1  'x, y, z'
loop_
 _atom_site_type_symbol
 _atom_site_label
 _atom_site_symmetry_multiplicity
 _atom_site_fract_x
 _atom_site_fract_y
 _atom_site_fract_z
 _atom_site_occupancy
  Al  Al1  1  0.000000  0.000000  0.000000  1.0
  Co  Co2  1  0.666667  0.333333  0.162700  1.0
  Co  Co3  1  0.333333  0.666667  0.837300  1.0
  Si  Si4  1  0.333333  0.666667  0.347859  1.0
  Si  Si5  1  0.666667  0.333333  0.652141  1.0
