# generated using pymatgen
data_Na2Ti2Sb2O
_symmetry_space_group_name_H-M   'P 1'
_cell_length_a   4.15277645
_cell_length_b   4.15277645
_cell_length_c   8.89398573
_cell_angle_alpha   103.50085126
_cell_angle_beta   103.50085126
_cell_angle_gamma   89.99999998
_symmetry_Int_Tables_number   1
_chemical_formula_structural   Na2Ti2Sb2O
_chemical_formula_sum   'Na2 Ti2 Sb2 O1'
_cell_volume   144.78070552
_cell_formula_units_Z   1
loop_
 _symmetry_equiv_pos_site_id
 _symmetry_equiv_pos_as_xyz
  1  'x, y, z'
loop_
 _atom_site_type_symbol
 _atom_site_label
 _atom_site_symmetry_multiplicity
 _atom_site_fract_x
 _atom_site_fract_y
 _atom_site_fract_z
 _atom_site_occupancy
  Na  Na1  1  0.682789  0.682789  0.365579  1.0
  Na  Na2  1  0.317211  0.317211  0.634421  1.0
  Ti  Ti3  1  0.000000  0.500000  0.000000  1.0
  Ti  Ti4  1  0.500000  0.000000  0.000000  1.0
  Sb  Sb5  1  0.120826  0.120826  0.241652  1.0
  Sb  Sb6  1  0.879174  0.879174  0.758348  1.0
  O  O7  1  0.500000  0.500000  0.000000  1.0
