# generated using pymatgen
data_ThSnRu2
_symmetry_space_group_name_H-M   'P 1'
_cell_length_a   4.81266634
_cell_length_b   4.81267075
_cell_length_c   4.81267118
_cell_angle_alpha   59.99999966
_cell_angle_beta   60.00011820
_cell_angle_gamma   59.99996982
_symmetry_Int_Tables_number   1
_chemical_formula_structural   ThSnRu2
_chemical_formula_sum   'Th1 Sn1 Ru2'
_cell_volume   78.82126209
_cell_formula_units_Z   1
loop_
 _symmetry_equiv_pos_site_id
 _symmetry_equiv_pos_as_xyz
  1  'x, y, z'
loop_
 _atom_site_type_symbol
 _atom_site_label
 _atom_site_symmetry_multiplicity
 _atom_site_fract_x
 _atom_site_fract_y
 _atom_site_fract_z
 _atom_site_occupancy
  Th  Th1  1  0.750000  0.750000  0.749999  1.0
  Sn  Sn2  1  0.249999  0.249999  0.249999  1.0
  Ru  Ru3  1  0.000000  0.000000  0.000000  1.0
  Ru  Ru4  1  0.500001  0.500000  0.500001  1.0
