# generated using pymatgen
data_ScTc2W
_symmetry_space_group_name_H-M   'P 1'
_cell_length_a   4.48322321
_cell_length_b   4.48322073
_cell_length_c   4.48321862
_cell_angle_alpha   59.99999374
_cell_angle_beta   59.99999697
_cell_angle_gamma   59.99996442
_symmetry_Int_Tables_number   1
_chemical_formula_structural   ScTc2W
_chemical_formula_sum   'Sc1 Tc2 W1'
_cell_volume   63.71699066
_cell_formula_units_Z   1
loop_
 _symmetry_equiv_pos_site_id
 _symmetry_equiv_pos_as_xyz
  1  'x, y, z'
loop_
 _atom_site_type_symbol
 _atom_site_label
 _atom_site_symmetry_multiplicity
 _atom_site_fract_x
 _atom_site_fract_y
 _atom_site_fract_z
 _atom_site_occupancy
  Sc  Sc1  1  0.250001  0.250001  0.250001  1.0
  Tc  Tc2  1  0.000000  0.000000  0.000000  1.0
  Tc  Tc3  1  0.500000  0.500000  0.500000  1.0
  W  W4  1  0.750001  0.750001  0.750001  1.0
