# generated using pymatgen
data_RbMnBi
_symmetry_space_group_name_H-M   'P 1'
_cell_length_a   4.87100434
_cell_length_b   4.87100434
_cell_length_c   8.83241007
_cell_angle_alpha   90.00000000
_cell_angle_beta   90.00000000
_cell_angle_gamma   90.00000000
_symmetry_Int_Tables_number   1
_chemical_formula_structural   RbMnBi
_chemical_formula_sum   'Rb2 Mn2 Bi2'
_cell_volume   209.56379633
_cell_formula_units_Z   2
loop_
 _symmetry_equiv_pos_site_id
 _symmetry_equiv_pos_as_xyz
  1  'x, y, z'
loop_
 _atom_site_type_symbol
 _atom_site_label
 _atom_site_symmetry_multiplicity
 _atom_site_fract_x
 _atom_site_fract_y
 _atom_site_fract_z
 _atom_site_occupancy
  Rb  Rb1  1  0.750000  0.750000  0.342823  1.0
  Rb  Rb2  1  0.250000  0.250000  0.657177  1.0
  Mn  Mn3  1  0.750000  0.250000  0.000000  1.0
  Mn  Mn4  1  0.250000  0.750000  0.000000  1.0
  Bi  Bi5  1  0.750000  0.750000  0.818763  1.0
  Bi  Bi6  1  0.250000  0.250000  0.181237  1.0
