# generated using pymatgen
data_Re3N
_symmetry_space_group_name_H-M   'P 1'
_cell_length_a   2.83736925
_cell_length_b   2.83737215
_cell_length_c   7.19688617
_cell_angle_alpha   90.00000000
_cell_angle_beta   90.00000000
_cell_angle_gamma   120.00140967
_symmetry_Int_Tables_number   1
_chemical_formula_structural   Re3N
_chemical_formula_sum   'Re3 N1'
_cell_volume   50.17660297
_cell_formula_units_Z   1
loop_
 _symmetry_equiv_pos_site_id
 _symmetry_equiv_pos_as_xyz
  1  'x, y, z'
loop_
 _atom_site_type_symbol
 _atom_site_label
 _atom_site_symmetry_multiplicity
 _atom_site_fract_x
 _atom_site_fract_y
 _atom_site_fract_z
 _atom_site_occupancy
  Re  Re1  1  0.333335  0.666668  0.198467  1.0
  Re  Re2  1  0.333335  0.666668  0.801532  1.0
  Re  Re3  1  0.666652  0.333351  0.500000  1.0
  N  N4  1  0.666682  0.333318  0.000000  1.0
