# generated using pymatgen
data_PrTm3
_symmetry_space_group_name_H-M   'P 1'
_cell_length_a   7.21856023
_cell_length_b   7.21376393
_cell_length_c   5.67112362
_cell_angle_alpha   90.00000000
_cell_angle_beta   90.00000000
_cell_angle_gamma   119.99999972
_symmetry_Int_Tables_number   1
_chemical_formula_structural   PrTm3
_chemical_formula_sum   'Pr2 Tm6'
_cell_volume   255.74800673
_cell_formula_units_Z   2
loop_
 _symmetry_equiv_pos_site_id
 _symmetry_equiv_pos_as_xyz
  1  'x, y, z'
loop_
 _atom_site_type_symbol
 _atom_site_label
 _atom_site_symmetry_multiplicity
 _atom_site_fract_x
 _atom_site_fract_y
 _atom_site_fract_z
 _atom_site_occupancy
  Pr  Pr1  1  0.666683  0.333349  0.250000  1.0
  Pr  Pr2  1  0.333315  0.666648  0.750000  1.0
  Tm  Tm3  1  0.164437  0.835561  0.250000  1.0
  Tm  Tm4  1  0.835559  0.671114  0.750000  1.0
  Tm  Tm5  1  0.328869  0.164435  0.750000  1.0
  Tm  Tm6  1  0.671132  0.835565  0.250000  1.0
  Tm  Tm7  1  0.164443  0.328886  0.250000  1.0
  Tm  Tm8  1  0.835562  0.164439  0.750000  1.0
