# generated using pymatgen
data_Ti2ReRu
_symmetry_space_group_name_H-M   'P 1'
_cell_length_a   4.38827552
_cell_length_b   4.38830375
_cell_length_c   4.38829986
_cell_angle_alpha   60.00014434
_cell_angle_beta   60.00089352
_cell_angle_gamma   60.00047999
_symmetry_Int_Tables_number   1
_chemical_formula_structural   Ti2ReRu
_chemical_formula_sum   'Ti2 Re1 Ru1'
_cell_volume   59.75535737
_cell_formula_units_Z   1
loop_
 _symmetry_equiv_pos_site_id
 _symmetry_equiv_pos_as_xyz
  1  'x, y, z'
loop_
 _atom_site_type_symbol
 _atom_site_label
 _atom_site_symmetry_multiplicity
 _atom_site_fract_x
 _atom_site_fract_y
 _atom_site_fract_z
 _atom_site_occupancy
  Ti  Ti1  1  0.499998  0.500000  0.500001  1.0
  Ti  Ti2  1  0.999999  0.000002  0.999999  1.0
  Re  Re3  1  0.250001  0.249999  0.249999  1.0
  Ru  Ru4  1  0.749999  0.749996  0.749999  1.0
