# generated using pymatgen
data_Ac2SiPd
_symmetry_space_group_name_H-M   'P 1'
_cell_length_a   5.43244156
_cell_length_b   5.43243452
_cell_length_c   5.43243030
_cell_angle_alpha   59.99995707
_cell_angle_beta   59.99987134
_cell_angle_gamma   60.00001709
_symmetry_Int_Tables_number   1
_chemical_formula_structural   Ac2SiPd
_chemical_formula_sum   'Ac2 Si1 Pd1'
_cell_volume   113.36218842
_cell_formula_units_Z   1
loop_
 _symmetry_equiv_pos_site_id
 _symmetry_equiv_pos_as_xyz
  1  'x, y, z'
loop_
 _atom_site_type_symbol
 _atom_site_label
 _atom_site_symmetry_multiplicity
 _atom_site_fract_x
 _atom_site_fract_y
 _atom_site_fract_z
 _atom_site_occupancy
  Ac  Ac1  1  0.500000  0.500000  0.500000  1.0
  Ac  Ac2  1  0.000000  0.000001  0.000000  1.0
  Si  Si3  1  0.750001  0.750001  0.750001  1.0
  Pd  Pd4  1  0.250001  0.250001  0.250001  1.0
