# generated using pymatgen
data_LiCd
_symmetry_space_group_name_H-M   'P 1'
_cell_length_a   4.77069354
_cell_length_b   4.77069354
_cell_length_c   4.77069354
_cell_angle_alpha   59.99999998
_cell_angle_beta   60.00000000
_cell_angle_gamma   59.99999998
_symmetry_Int_Tables_number   1
_chemical_formula_structural   LiCd
_chemical_formula_sum   'Li2 Cd2'
_cell_volume   76.77672091
_cell_formula_units_Z   2
loop_
 _symmetry_equiv_pos_site_id
 _symmetry_equiv_pos_as_xyz
  1  'x, y, z'
loop_
 _atom_site_type_symbol
 _atom_site_label
 _atom_site_symmetry_multiplicity
 _atom_site_fract_x
 _atom_site_fract_y
 _atom_site_fract_z
 _atom_site_occupancy
  Li  Li1  1  0.625000  0.625000  0.625000  1.0
  Li  Li2  1  0.375000  0.375000  0.375000  1.0
  Cd  Cd3  1  0.125000  0.125000  0.125000  1.0
  Cd  Cd4  1  0.875000  0.875000  0.875000  1.0
