# generated using pymatgen
data_ZrCdRh2
_symmetry_space_group_name_H-M   'P 1'
_cell_length_a   4.60224758
_cell_length_b   4.60224608
_cell_length_c   4.60225639
_cell_angle_alpha   60.00030607
_cell_angle_beta   60.00036208
_cell_angle_gamma   60.00024792
_symmetry_Int_Tables_number   1
_chemical_formula_structural   ZrCdRh2
_chemical_formula_sum   'Zr1 Cd1 Rh2'
_cell_volume   68.92846907
_cell_formula_units_Z   1
loop_
 _symmetry_equiv_pos_site_id
 _symmetry_equiv_pos_as_xyz
  1  'x, y, z'
loop_
 _atom_site_type_symbol
 _atom_site_label
 _atom_site_symmetry_multiplicity
 _atom_site_fract_x
 _atom_site_fract_y
 _atom_site_fract_z
 _atom_site_occupancy
  Zr  Zr1  1  0.750001  0.750001  0.750000  1.0
  Cd  Cd2  1  0.250000  0.250000  0.250001  1.0
  Rh  Rh3  1  0.000000  0.000001  0.000000  1.0
  Rh  Rh4  1  0.500000  0.500000  0.500001  1.0
