# generated using pymatgen
data_Co3Bi
_symmetry_space_group_name_H-M   'P 1'
_cell_length_a   4.64876174
_cell_length_b   4.64876174
_cell_length_c   4.64876174
_cell_angle_alpha   130.89775978
_cell_angle_beta   130.89775978
_cell_angle_gamma   71.97556768
_symmetry_Int_Tables_number   1
_chemical_formula_structural   Co3Bi
_chemical_formula_sum   'Co3 Bi1'
_cell_volume   56.13699759
_cell_formula_units_Z   1
loop_
 _symmetry_equiv_pos_site_id
 _symmetry_equiv_pos_as_xyz
  1  'x, y, z'
loop_
 _atom_site_type_symbol
 _atom_site_label
 _atom_site_symmetry_multiplicity
 _atom_site_fract_x
 _atom_site_fract_y
 _atom_site_fract_z
 _atom_site_occupancy
  Co  Co1  1  0.750001  0.250001  0.500001  1.0
  Co  Co2  1  0.250001  0.750001  0.500001  1.0
  Co  Co3  1  0.500000  0.500000  0.000000  1.0
  Bi  Bi4  1  0.000000  0.000000  0.000000  1.0
