# generated using pymatgen
data_Hf3Zn3N
_symmetry_space_group_name_H-M   'P 1'
_cell_length_a   12.04266314
_cell_length_b   12.04266314
_cell_length_c   12.04266314
_cell_angle_alpha   90.00000000
_cell_angle_beta   90.00000000
_cell_angle_gamma   90.00000000
_symmetry_Int_Tables_number   1
_chemical_formula_structural   Hf3Zn3N
_chemical_formula_sum   'Hf48 Zn48 N16'
_cell_volume   1746.49607930
_cell_formula_units_Z   16
loop_
 _symmetry_equiv_pos_site_id
 _symmetry_equiv_pos_as_xyz
  1  'x, y, z'
loop_
 _atom_site_type_symbol
 _atom_site_label
 _atom_site_symmetry_multiplicity
 _atom_site_fract_x
 _atom_site_fract_y
 _atom_site_fract_z
 _atom_site_occupancy
  Hf  Hf1  1  0.184959  0.000000  0.000000  1.0
  Hf  Hf2  1  0.000000  0.184959  0.000000  1.0
  Hf  Hf3  1  0.000000  0.000000  0.815041  1.0
  Hf  Hf4  1  0.815041  0.000000  0.000000  1.0
  Hf  Hf5  1  0.000000  0.815041  0.000000  1.0
  Hf  Hf6  1  0.000000  0.000000  0.184959  1.0
  Hf  Hf7  1  0.065041  0.750000  0.750000  1.0
  Hf  Hf8  1  0.750000  0.065041  0.750000  1.0
  Hf  Hf9  1  0.250000  0.750000  0.934959  1.0
  Hf  Hf10  1  0.434959  0.750000  0.750000  1.0
  Hf  Hf11  1  0.250000  0.934959  0.750000  1.0
  Hf  Hf12  1  0.250000  0.750000  0.565041  1.0
  Hf  Hf13  1  0.184959  0.500000  0.500000  1.0
  Hf  Hf14  1  0.000000  0.684959  0.500000  1.0
  Hf  Hf15  1  0.000000  0.500000  0.315041  1.0
  Hf  Hf16  1  0.815041  0.500000  0.500000  1.0
  Hf  Hf17  1  0.000000  0.315041  0.500000  1.0
  Hf  Hf18  1  0.000000  0.500000  0.684959  1.0
  Hf  Hf19  1  0.065041  0.250000  0.250000  1.0
  Hf  Hf20  1  0.750000  0.565041  0.250000  1.0
  Hf  Hf21  1  0.250000  0.250000  0.434959  1.0
  Hf  Hf22  1  0.434959  0.250000  0.250000  1.0
  Hf  Hf23  1  0.250000  0.434959  0.250000  1.0
  Hf  Hf24  1  0.250000  0.250000  0.065041  1.0
  Hf  Hf25  1  0.684959  0.000000  0.500000  1.0
  Hf  Hf26  1  0.500000  0.184959  0.500000  1.0
  Hf  Hf27  1  0.500000  0.000000  0.315041  1.0
  Hf  Hf28  1  0.315041  0.000000  0.500000  1.0
  Hf  Hf29  1  0.500000  0.815041  0.500000  1.0
  Hf  Hf30  1  0.500000  0.000000  0.684959  1.0
  Hf  Hf31  1  0.565041  0.750000  0.250000  1.0
  Hf  Hf32  1  0.250000  0.065041  0.250000  1.0
  Hf  Hf33  1  0.750000  0.750000  0.434959  1.0
  Hf  Hf34  1  0.934959  0.750000  0.250000  1.0
  Hf  Hf35  1  0.750000  0.934959  0.250000  1.0
  Hf  Hf36  1  0.750000  0.750000  0.065041  1.0
  Hf  Hf37  1  0.684959  0.500000  0.000000  1.0
  Hf  Hf38  1  0.500000  0.684959  0.000000  1.0
  Hf  Hf39  1  0.500000  0.500000  0.815041  1.0
  Hf  Hf40  1  0.315041  0.500000  0.000000  1.0
  Hf  Hf41  1  0.500000  0.315041  0.000000  1.0
  Hf  Hf42  1  0.500000  0.500000  0.184959  1.0
  Hf  Hf43  1  0.565041  0.250000  0.750000  1.0
  Hf  Hf44  1  0.250000  0.565041  0.750000  1.0
  Hf  Hf45  1  0.750000  0.250000  0.934959  1.0
  Hf  Hf46  1  0.934959  0.250000  0.750000  1.0
  Hf  Hf47  1  0.750000  0.434959  0.750000  1.0
  Hf  Hf48  1  0.750000  0.250000  0.565041  1.0
  Zn  Zn49  1  0.082634  0.082634  0.417366  1.0
  Zn  Zn50  1  0.917366  0.917366  0.417366  1.0
  Zn  Zn51  1  0.917366  0.082634  0.582634  1.0
  Zn  Zn52  1  0.082634  0.917366  0.582634  1.0
  Zn  Zn53  1  0.167366  0.167366  0.832634  1.0
  Zn  Zn54  1  0.832634  0.832634  0.832634  1.0
  Zn  Zn55  1  0.832634  0.167366  0.167366  1.0
  Zn  Zn56  1  0.167366  0.832634  0.167366  1.0
  Zn  Zn57  1  0.875000  0.875000  0.625000  1.0
  Zn  Zn58  1  0.125000  0.125000  0.625000  1.0
  Zn  Zn59  1  0.125000  0.875000  0.375000  1.0
  Zn  Zn60  1  0.875000  0.125000  0.375000  1.0
  Zn  Zn61  1  0.082634  0.582634  0.917366  1.0
  Zn  Zn62  1  0.917366  0.417366  0.917366  1.0
  Zn  Zn63  1  0.917366  0.582634  0.082634  1.0
  Zn  Zn64  1  0.082634  0.417366  0.082634  1.0
  Zn  Zn65  1  0.167366  0.667366  0.332634  1.0
  Zn  Zn66  1  0.832634  0.332634  0.332634  1.0
  Zn  Zn67  1  0.832634  0.667366  0.667366  1.0
  Zn  Zn68  1  0.167366  0.332634  0.667366  1.0
  Zn  Zn69  1  0.875000  0.375000  0.125000  1.0
  Zn  Zn70  1  0.125000  0.625000  0.125000  1.0
  Zn  Zn71  1  0.125000  0.375000  0.875000  1.0
  Zn  Zn72  1  0.875000  0.625000  0.875000  1.0
  Zn  Zn73  1  0.582634  0.082634  0.917366  1.0
  Zn  Zn74  1  0.417366  0.917366  0.917366  1.0
  Zn  Zn75  1  0.417366  0.082634  0.082634  1.0
  Zn  Zn76  1  0.582634  0.917366  0.082634  1.0
  Zn  Zn77  1  0.667366  0.167366  0.332634  1.0
  Zn  Zn78  1  0.332634  0.832634  0.332634  1.0
  Zn  Zn79  1  0.332634  0.167366  0.667366  1.0
  Zn  Zn80  1  0.667366  0.832634  0.667366  1.0
  Zn  Zn81  1  0.375000  0.875000  0.125000  1.0
  Zn  Zn82  1  0.625000  0.125000  0.125000  1.0
  Zn  Zn83  1  0.625000  0.875000  0.875000  1.0
  Zn  Zn84  1  0.375000  0.125000  0.875000  1.0
  Zn  Zn85  1  0.582634  0.582634  0.417366  1.0
  Zn  Zn86  1  0.417366  0.417366  0.417366  1.0
  Zn  Zn87  1  0.417366  0.582634  0.582634  1.0
  Zn  Zn88  1  0.582634  0.417366  0.582634  1.0
  Zn  Zn89  1  0.667366  0.667366  0.832634  1.0
  Zn  Zn90  1  0.332634  0.332634  0.832634  1.0
  Zn  Zn91  1  0.332634  0.667366  0.167366  1.0
  Zn  Zn92  1  0.667366  0.332634  0.167366  1.0
  Zn  Zn93  1  0.375000  0.375000  0.625000  1.0
  Zn  Zn94  1  0.625000  0.625000  0.625000  1.0
  Zn  Zn95  1  0.625000  0.375000  0.375000  1.0
  Zn  Zn96  1  0.375000  0.625000  0.375000  1.0
  N  N97  1  0.375000  0.875000  0.625000  1.0
  N  N98  1  0.625000  0.125000  0.625000  1.0
  N  N99  1  0.125000  0.875000  0.875000  1.0
  N  N100  1  0.875000  0.125000  0.875000  1.0
  N  N101  1  0.375000  0.375000  0.125000  1.0
  N  N102  1  0.625000  0.625000  0.125000  1.0
  N  N103  1  0.125000  0.375000  0.375000  1.0
  N  N104  1  0.875000  0.625000  0.375000  1.0
  N  N105  1  0.875000  0.875000  0.125000  1.0
  N  N106  1  0.125000  0.125000  0.125000  1.0
  N  N107  1  0.625000  0.875000  0.375000  1.0
  N  N108  1  0.375000  0.125000  0.375000  1.0
  N  N109  1  0.875000  0.375000  0.625000  1.0
  N  N110  1  0.125000  0.625000  0.625000  1.0
  N  N111  1  0.625000  0.375000  0.875000  1.0
  N  N112  1  0.375000  0.625000  0.875000  1.0
