# generated using pymatgen
data_MnSiRh2
_symmetry_space_group_name_H-M   'P 1'
_cell_length_a   4.24498107
_cell_length_b   4.24498036
_cell_length_c   4.24498249
_cell_angle_alpha   59.99985084
_cell_angle_beta   59.99991167
_cell_angle_gamma   59.99990600
_symmetry_Int_Tables_number   1
_chemical_formula_structural   MnSiRh2
_chemical_formula_sum   'Mn1 Si1 Rh2'
_cell_volume   54.08928748
_cell_formula_units_Z   1
loop_
 _symmetry_equiv_pos_site_id
 _symmetry_equiv_pos_as_xyz
  1  'x, y, z'
loop_
 _atom_site_type_symbol
 _atom_site_label
 _atom_site_symmetry_multiplicity
 _atom_site_fract_x
 _atom_site_fract_y
 _atom_site_fract_z
 _atom_site_occupancy
  Mn  Mn1  1  0.250000  0.250000  0.250000  1.0
  Si  Si2  1  0.750001  0.750001  0.750001  1.0
  Rh  Rh3  1  0.000001  0.000000  0.999999  1.0
  Rh  Rh4  1  0.499999  0.499999  0.500000  1.0
