# generated using pymatgen
data_LiMg2Pt
_symmetry_space_group_name_H-M   'P 1'
_cell_length_a   4.54534015
_cell_length_b   4.54534191
_cell_length_c   4.54534297
_cell_angle_alpha   59.99977913
_cell_angle_beta   59.99979045
_cell_angle_gamma   59.99976945
_symmetry_Int_Tables_number   1
_chemical_formula_structural   LiMg2Pt
_chemical_formula_sum   'Li1 Mg2 Pt1'
_cell_volume   66.40219532
_cell_formula_units_Z   1
loop_
 _symmetry_equiv_pos_site_id
 _symmetry_equiv_pos_as_xyz
  1  'x, y, z'
loop_
 _atom_site_type_symbol
 _atom_site_label
 _atom_site_symmetry_multiplicity
 _atom_site_fract_x
 _atom_site_fract_y
 _atom_site_fract_z
 _atom_site_occupancy
  Li  Li1  1  0.250000  0.250000  0.250000  1.0
  Mg  Mg2  1  0.000000  0.000000  0.000000  1.0
  Mg  Mg3  1  0.500000  0.500000  0.500000  1.0
  Pt  Pt4  1  0.750000  0.750000  0.750000  1.0
