# generated using pymatgen
data_CaCO3
_symmetry_space_group_name_H-M   'P 1'
_cell_length_a   4.34325347
_cell_length_b   5.14067777
_cell_length_c   4.96119062
_cell_angle_alpha   90.00000000
_cell_angle_beta   90.00000000
_cell_angle_gamma   90.00000000
_symmetry_Int_Tables_number   1
_chemical_formula_structural   CaCO3
_chemical_formula_sum   'Ca2 C2 O6'
_cell_volume   110.76982544
_cell_formula_units_Z   2
loop_
 _symmetry_equiv_pos_site_id
 _symmetry_equiv_pos_as_xyz
  1  'x, y, z'
loop_
 _atom_site_type_symbol
 _atom_site_label
 _atom_site_symmetry_multiplicity
 _atom_site_fract_x
 _atom_site_fract_y
 _atom_site_fract_z
 _atom_site_occupancy
  Ca  Ca1  1  0.392475  0.750000  0.250000  1.0
  Ca  Ca2  1  0.607525  0.250000  0.750000  1.0
  C  C3  1  0.010156  0.750000  0.750000  1.0
  C  C4  1  0.989844  0.250000  0.250000  1.0
  O  O5  1  0.869692  0.750000  0.521029  1.0
  O  O6  1  0.869692  0.750000  0.978971  1.0
  O  O7  1  0.687693  0.250000  0.250000  1.0
  O  O8  1  0.312307  0.750000  0.750000  1.0
  O  O9  1  0.130308  0.250000  0.478971  1.0
  O  O10  1  0.130308  0.250000  0.021029  1.0
