# generated using pymatgen
data_Li2YbSn
_symmetry_space_group_name_H-M   'P 1'
_cell_length_a   4.88345389
_cell_length_b   4.88345672
_cell_length_c   4.88345733
_cell_angle_alpha   59.99983940
_cell_angle_beta   59.99988270
_cell_angle_gamma   59.99985602
_symmetry_Int_Tables_number   1
_chemical_formula_structural   Li2YbSn
_chemical_formula_sum   'Li2 Yb1 Sn1'
_cell_volume   82.35035001
_cell_formula_units_Z   1
loop_
 _symmetry_equiv_pos_site_id
 _symmetry_equiv_pos_as_xyz
  1  'x, y, z'
loop_
 _atom_site_type_symbol
 _atom_site_label
 _atom_site_symmetry_multiplicity
 _atom_site_fract_x
 _atom_site_fract_y
 _atom_site_fract_z
 _atom_site_occupancy
  Li  Li1  1  0.000000  0.000000  0.000000  1.0
  Li  Li2  1  0.500001  0.500001  0.500001  1.0
  Yb  Yb3  1  0.749999  0.749999  0.749999  1.0
  Sn  Sn4  1  0.250000  0.250000  0.250000  1.0
