# generated using pymatgen
data_TmInNi4
_symmetry_space_group_name_H-M   'P 1'
_cell_length_a   4.94938697
_cell_length_b   4.94938697
_cell_length_c   4.94938697
_cell_angle_alpha   59.99999996
_cell_angle_beta   59.99999995
_cell_angle_gamma   59.99999997
_symmetry_Int_Tables_number   1
_chemical_formula_structural   TmInNi4
_chemical_formula_sum   'Tm1 In1 Ni4'
_cell_volume   85.73126534
_cell_formula_units_Z   1
loop_
 _symmetry_equiv_pos_site_id
 _symmetry_equiv_pos_as_xyz
  1  'x, y, z'
loop_
 _atom_site_type_symbol
 _atom_site_label
 _atom_site_symmetry_multiplicity
 _atom_site_fract_x
 _atom_site_fract_y
 _atom_site_fract_z
 _atom_site_occupancy
  Tm  Tm1  1  0.750000  0.750000  0.750000  1.0
  In  In2  1  0.000000  0.000000  0.000000  1.0
  Ni  Ni3  1  0.877082  0.374306  0.374306  1.0
  Ni  Ni4  1  0.374306  0.374306  0.374306  1.0
  Ni  Ni5  1  0.374306  0.374306  0.877082  1.0
  Ni  Ni6  1  0.374306  0.877082  0.374306  1.0
