# generated using pymatgen
data_AlVOs2
_symmetry_space_group_name_H-M   'P 1'
_cell_length_a   4.26425918
_cell_length_b   4.26426465
_cell_length_c   4.26426171
_cell_angle_alpha   60.00040932
_cell_angle_beta   60.00018529
_cell_angle_gamma   60.00011585
_symmetry_Int_Tables_number   1
_chemical_formula_structural   AlVOs2
_chemical_formula_sum   'Al1 V1 Os2'
_cell_volume   54.83008611
_cell_formula_units_Z   1
loop_
 _symmetry_equiv_pos_site_id
 _symmetry_equiv_pos_as_xyz
  1  'x, y, z'
loop_
 _atom_site_type_symbol
 _atom_site_label
 _atom_site_symmetry_multiplicity
 _atom_site_fract_x
 _atom_site_fract_y
 _atom_site_fract_z
 _atom_site_occupancy
  Al  Al1  1  0.250000  0.250000  0.250000  1.0
  V  V2  1  0.750000  0.750000  0.750001  1.0
  Os  Os3  1  0.500000  0.499999  0.499999  1.0
  Os  Os4  1  0.999999  0.000001  0.000000  1.0
