# generated using pymatgen
data_ScVRu2
_symmetry_space_group_name_H-M   'P 1'
_cell_length_a   4.38730787
_cell_length_b   4.38730121
_cell_length_c   4.38730640
_cell_angle_alpha   60.00002362
_cell_angle_beta   60.00006328
_cell_angle_gamma   59.99988665
_symmetry_Int_Tables_number   1
_chemical_formula_structural   ScVRu2
_chemical_formula_sum   'Sc1 V1 Ru2'
_cell_volume   59.71431353
_cell_formula_units_Z   1
loop_
 _symmetry_equiv_pos_site_id
 _symmetry_equiv_pos_as_xyz
  1  'x, y, z'
loop_
 _atom_site_type_symbol
 _atom_site_label
 _atom_site_symmetry_multiplicity
 _atom_site_fract_x
 _atom_site_fract_y
 _atom_site_fract_z
 _atom_site_occupancy
  Sc  Sc1  1  0.249999  0.250001  0.250000  1.0
  V  V2  1  0.750000  0.750000  0.750000  1.0
  Ru  Ru3  1  0.500000  0.500000  0.500000  1.0
  Ru  Ru4  1  0.000000  0.000000  0.000000  1.0
