# generated using pymatgen
data_HgF
_symmetry_space_group_name_H-M   'P 1'
_cell_length_a   3.84154763
_cell_length_b   3.84154763
_cell_length_c   6.14232156
_cell_angle_alpha   108.22270666
_cell_angle_beta   108.22270676
_cell_angle_gamma   89.99999996
_symmetry_Int_Tables_number   1
_chemical_formula_structural   HgF
_chemical_formula_sum   'Hg2 F2'
_cell_volume   81.29938960
_cell_formula_units_Z   2
loop_
 _symmetry_equiv_pos_site_id
 _symmetry_equiv_pos_as_xyz
  1  'x, y, z'
loop_
 _atom_site_type_symbol
 _atom_site_label
 _atom_site_symmetry_multiplicity
 _atom_site_fract_x
 _atom_site_fract_y
 _atom_site_fract_z
 _atom_site_occupancy
  Hg  Hg1  1  0.882949  0.882949  0.765898  1.0
  Hg  Hg2  1  0.117051  0.117051  0.234102  1.0
  F  F3  1  0.686060  0.686060  0.372121  1.0
  F  F4  1  0.313940  0.313940  0.627879  1.0
