# generated using pymatgen
data_Sc2GaTc
_symmetry_space_group_name_H-M   'P 1'
_cell_length_a   4.65140675
_cell_length_b   4.65143040
_cell_length_c   4.65142912
_cell_angle_alpha   60.00012074
_cell_angle_beta   60.00031374
_cell_angle_gamma   60.00019793
_symmetry_Int_Tables_number   1
_chemical_formula_structural   Sc2GaTc
_chemical_formula_sum   'Sc2 Ga1 Tc1'
_cell_volume   71.16137499
_cell_formula_units_Z   1
loop_
 _symmetry_equiv_pos_site_id
 _symmetry_equiv_pos_as_xyz
  1  'x, y, z'
loop_
 _atom_site_type_symbol
 _atom_site_label
 _atom_site_symmetry_multiplicity
 _atom_site_fract_x
 _atom_site_fract_y
 _atom_site_fract_z
 _atom_site_occupancy
  Sc  Sc1  1  0.000000  0.999998  0.000001  1.0
  Sc  Sc2  1  0.499999  0.500002  0.499999  1.0
  Ga  Ga3  1  0.250000  0.249999  0.250000  1.0
  Tc  Tc4  1  0.750001  0.750001  0.749999  1.0
