# generated using pymatgen
data_TiPN3
_symmetry_space_group_name_H-M   'P 1'
_cell_length_a   2.83485000
_cell_length_b   5.05445968
_cell_length_c   5.05446000
_cell_angle_alpha   116.15007562
_cell_angle_beta   90.00000000
_cell_angle_gamma   90.00000000
_symmetry_Int_Tables_number   1
_chemical_formula_structural   TiPN3
_chemical_formula_sum   'Ti1 P1 N3'
_cell_volume   65.01043976
_cell_formula_units_Z   1
loop_
 _symmetry_equiv_pos_site_id
 _symmetry_equiv_pos_as_xyz
  1  'x, y, z'
loop_
 _atom_site_type_symbol
 _atom_site_label
 _atom_site_symmetry_multiplicity
 _atom_site_fract_x
 _atom_site_fract_y
 _atom_site_fract_z
 _atom_site_occupancy
  Ti  Ti1  1  0.000000  0.578950  0.421050  1.0
  P  P2  1  0.500000  0.925500  0.074500  1.0
  N  N3  1  0.500000  0.772230  0.718610  1.0
  N  N4  1  0.000000  0.813880  0.186120  1.0
  N  N5  1  0.500000  0.281390  0.227770  1.0
