# generated using pymatgen
data_ScTaOs2
_symmetry_space_group_name_H-M   'P 1'
_cell_length_a   4.52081421
_cell_length_b   4.52081564
_cell_length_c   4.52082357
_cell_angle_alpha   60.00000543
_cell_angle_beta   60.00005096
_cell_angle_gamma   60.00008641
_symmetry_Int_Tables_number   1
_chemical_formula_structural   ScTaOs2
_chemical_formula_sum   'Sc1 Ta1 Os2'
_cell_volume   65.33358440
_cell_formula_units_Z   1
loop_
 _symmetry_equiv_pos_site_id
 _symmetry_equiv_pos_as_xyz
  1  'x, y, z'
loop_
 _atom_site_type_symbol
 _atom_site_label
 _atom_site_symmetry_multiplicity
 _atom_site_fract_x
 _atom_site_fract_y
 _atom_site_fract_z
 _atom_site_occupancy
  Sc  Sc1  1  0.250003  0.250001  0.250000  1.0
  Ta  Ta2  1  0.750000  0.750001  0.750001  1.0
  Os  Os3  1  0.999999  0.000000  0.000000  1.0
  Os  Os4  1  0.499999  0.500000  0.500001  1.0
