# generated using pymatgen
data_CaSi2
_symmetry_space_group_name_H-M   'P 1'
_cell_length_a   3.87491824
_cell_length_b   3.87491824
_cell_length_c   10.37733361
_cell_angle_alpha   79.23967280
_cell_angle_beta   79.23967280
_cell_angle_gamma   59.99998732
_symmetry_Int_Tables_number   1
_chemical_formula_structural   CaSi2
_chemical_formula_sum   'Ca2 Si4'
_cell_volume   131.76715359
_cell_formula_units_Z   2
loop_
 _symmetry_equiv_pos_site_id
 _symmetry_equiv_pos_as_xyz
  1  'x, y, z'
loop_
 _atom_site_type_symbol
 _atom_site_label
 _atom_site_symmetry_multiplicity
 _atom_site_fract_x
 _atom_site_fract_y
 _atom_site_fract_z
 _atom_site_occupancy
  Ca  Ca1  1  0.079955  0.079955  0.760134  1.0
  Ca  Ca2  1  0.920045  0.920045  0.239866  1.0
  Si  Si3  1  0.182605  0.182605  0.452184  1.0
  Si  Si4  1  0.817395  0.817395  0.547816  1.0
  Si  Si5  1  0.347066  0.347066  0.958803  1.0
  Si  Si6  1  0.652934  0.652934  0.041197  1.0
