# generated using pymatgen
data_Sr4As2O
_symmetry_space_group_name_H-M   'P 1'
_cell_length_a   4.88349874
_cell_length_b   4.88349874
_cell_length_c   8.92487307
_cell_angle_alpha   105.87796063
_cell_angle_beta   105.87796059
_cell_angle_gamma   89.99999995
_symmetry_Int_Tables_number   1
_chemical_formula_structural   Sr4As2O
_chemical_formula_sum   'Sr4 As2 O1'
_cell_volume   196.26811253
_cell_formula_units_Z   1
loop_
 _symmetry_equiv_pos_site_id
 _symmetry_equiv_pos_as_xyz
  1  'x, y, z'
loop_
 _atom_site_type_symbol
 _atom_site_label
 _atom_site_symmetry_multiplicity
 _atom_site_fract_x
 _atom_site_fract_y
 _atom_site_fract_z
 _atom_site_occupancy
  Sr  Sr1  1  0.673824  0.673824  0.347648  1.0
  Sr  Sr2  1  0.326176  0.326176  0.652352  1.0
  Sr  Sr3  1  0.000000  0.500000  0.000000  1.0
  Sr  Sr4  1  0.500000  0.000000  0.000000  1.0
  As  As5  1  0.863941  0.863941  0.727883  1.0
  As  As6  1  0.136059  0.136059  0.272117  1.0
  O  O7  1  0.500000  0.500000  0.000000  1.0
