# generated using pymatgen
data_BiO2
_symmetry_space_group_name_H-M   'P 1'
_cell_length_a   7.01893178
_cell_length_b   7.02003833
_cell_length_c   7.03608955
_cell_angle_alpha   59.97677989
_cell_angle_beta   59.97088303
_cell_angle_gamma   59.89860006
_symmetry_Int_Tables_number   1
_chemical_formula_structural   BiO2
_chemical_formula_sum   'Bi4 O8'
_cell_volume   244.86195607
_cell_formula_units_Z   4
loop_
 _symmetry_equiv_pos_site_id
 _symmetry_equiv_pos_as_xyz
  1  'x, y, z'
loop_
 _atom_site_type_symbol
 _atom_site_label
 _atom_site_symmetry_multiplicity
 _atom_site_fract_x
 _atom_site_fract_y
 _atom_site_fract_z
 _atom_site_occupancy
  Bi  Bi1  1  0.500057  0.499942  0.500002  1.0
  Bi  Bi2  1  0.500025  0.000044  0.499968  1.0
  Bi  Bi3  1  0.999963  0.499977  0.500033  1.0
  Bi  Bi4  1  0.500060  0.499946  0.999998  1.0
  O  O5  1  0.730157  0.729999  0.311435  1.0
  O  O6  1  0.730484  0.730322  0.727860  1.0
  O  O7  1  0.269832  0.270009  0.688568  1.0
  O  O8  1  0.268916  0.688808  0.271573  1.0
  O  O9  1  0.269505  0.269686  0.272134  1.0
  O  O10  1  0.688763  0.269051  0.271530  1.0
  O  O11  1  0.311180  0.730975  0.728487  1.0
  O  O12  1  0.731062  0.311247  0.728412  1.0
