# generated using pymatgen
data_HfNbTc2
_symmetry_space_group_name_H-M   'P 1'
_cell_length_a   4.56632205
_cell_length_b   4.56632939
_cell_length_c   4.56632741
_cell_angle_alpha   60.00003990
_cell_angle_beta   60.00002372
_cell_angle_gamma   60.00003616
_symmetry_Int_Tables_number   1
_chemical_formula_structural   HfNbTc2
_chemical_formula_sum   'Hf1 Nb1 Tc2'
_cell_volume   67.32651751
_cell_formula_units_Z   1
loop_
 _symmetry_equiv_pos_site_id
 _symmetry_equiv_pos_as_xyz
  1  'x, y, z'
loop_
 _atom_site_type_symbol
 _atom_site_label
 _atom_site_symmetry_multiplicity
 _atom_site_fract_x
 _atom_site_fract_y
 _atom_site_fract_z
 _atom_site_occupancy
  Hf  Hf1  1  0.250000  0.250001  0.249999  1.0
  Nb  Nb2  1  0.750000  0.750000  0.750000  1.0
  Tc  Tc3  1  0.500000  0.500000  0.500001  1.0
  Tc  Tc4  1  0.000001  0.000000  0.000000  1.0
