# generated using pymatgen
data_LaYbCd2
_symmetry_space_group_name_H-M   'P 1'
_cell_length_a   5.48605850
_cell_length_b   5.48605666
_cell_length_c   5.48605793
_cell_angle_alpha   59.99955879
_cell_angle_beta   59.99940607
_cell_angle_gamma   59.99944597
_symmetry_Int_Tables_number   1
_chemical_formula_structural   LaYbCd2
_chemical_formula_sum   'La1 Yb1 Cd2'
_cell_volume   116.75107778
_cell_formula_units_Z   1
loop_
 _symmetry_equiv_pos_site_id
 _symmetry_equiv_pos_as_xyz
  1  'x, y, z'
loop_
 _atom_site_type_symbol
 _atom_site_label
 _atom_site_symmetry_multiplicity
 _atom_site_fract_x
 _atom_site_fract_y
 _atom_site_fract_z
 _atom_site_occupancy
  La  La1  1  0.249998  0.250003  0.249997  1.0
  Yb  Yb2  1  0.750000  0.749998  0.750000  1.0
  Cd  Cd3  1  0.500000  0.500000  0.500001  1.0
  Cd  Cd4  1  0.000001  0.999998  0.000001  1.0
