# generated using pymatgen
data_MgSc2Cd
_symmetry_space_group_name_H-M   'P 1'
_cell_length_a   5.03634981
_cell_length_b   5.03635810
_cell_length_c   5.03635542
_cell_angle_alpha   60.00019140
_cell_angle_beta   60.00017472
_cell_angle_gamma   60.00029339
_symmetry_Int_Tables_number   1
_chemical_formula_structural   MgSc2Cd
_chemical_formula_sum   'Mg1 Sc2 Cd1'
_cell_volume   90.33083552
_cell_formula_units_Z   1
loop_
 _symmetry_equiv_pos_site_id
 _symmetry_equiv_pos_as_xyz
  1  'x, y, z'
loop_
 _atom_site_type_symbol
 _atom_site_label
 _atom_site_symmetry_multiplicity
 _atom_site_fract_x
 _atom_site_fract_y
 _atom_site_fract_z
 _atom_site_occupancy
  Mg  Mg1  1  0.749999  0.749999  0.749999  1.0
  Sc  Sc2  1  0.000001  0.000000  0.000000  1.0
  Sc  Sc3  1  0.499999  0.500001  0.500001  1.0
  Cd  Cd4  1  0.250000  0.250000  0.250000  1.0
