# generated using pymatgen
data_H6PbCBr3N
_symmetry_space_group_name_H-M   'P 1'
_cell_length_a   6.03853091
_cell_length_b   6.05967989
_cell_length_c   6.12817896
_cell_angle_alpha   90.00113438
_cell_angle_beta   90.07179375
_cell_angle_gamma   90.00067262
_symmetry_Int_Tables_number   1
_chemical_formula_structural   H6PbCBr3N
_chemical_formula_sum   'H6 Pb1 C1 Br3 N1'
_cell_volume   224.23947848
_cell_formula_units_Z   1
loop_
 _symmetry_equiv_pos_site_id
 _symmetry_equiv_pos_as_xyz
  1  'x, y, z'
loop_
 _atom_site_type_symbol
 _atom_site_label
 _atom_site_symmetry_multiplicity
 _atom_site_fract_x
 _atom_site_fract_y
 _atom_site_fract_z
 _atom_site_occupancy
  H  H1  1  0.218258  0.137900  0.968190  1.0
  H  H2  1  0.177786  0.999965  0.198636  1.0
  H  H3  1  0.825095  0.148057  0.061619  1.0
  H  H4  1  0.869341  0.999773  0.811715  1.0
  H  H5  1  0.824847  0.852217  0.061996  1.0
  H  H6  1  0.218053  0.861506  0.968460  1.0
  Pb  Pb7  1  0.475266  0.500001  0.477994  1.0
  C  C8  1  0.897311  0.999979  0.988520  1.0
  Br  Br9  1  0.430028  0.499886  0.972748  1.0
  Br  Br10  1  0.434852  0.000011  0.512708  1.0
  Br  Br11  1  0.966538  0.500177  0.440736  1.0
  N  N12  1  0.140606  0.999831  0.032465  1.0
