# generated using pymatgen
data_H6PbCI3N
_symmetry_space_group_name_H-M   'P 1'
_cell_length_a   6.43839326
_cell_length_b   6.43672416
_cell_length_c   6.49207037
_cell_angle_alpha   90.41946266
_cell_angle_beta   90.00369171
_cell_angle_gamma   89.99764213
_symmetry_Int_Tables_number   1
_chemical_formula_structural   H6PbCI3N
_chemical_formula_sum   'H6 Pb1 C1 I3 N1'
_cell_volume   269.03821763
_cell_formula_units_Z   1
loop_
 _symmetry_equiv_pos_site_id
 _symmetry_equiv_pos_as_xyz
  1  'x, y, z'
loop_
 _atom_site_type_symbol
 _atom_site_label
 _atom_site_symmetry_multiplicity
 _atom_site_fract_x
 _atom_site_fract_y
 _atom_site_fract_z
 _atom_site_occupancy
  H  H1  1  0.861007  0.159093  0.931123  1.0
  H  H2  1  0.000276  0.132363  0.168228  1.0
  H  H3  1  0.130380  0.796003  0.039015  1.0
  H  H4  1  0.999997  0.821186  0.820191  1.0
  H  H5  1  0.870254  0.795823  0.039365  1.0
  H  H6  1  0.138737  0.159301  0.930686  1.0
  Pb  Pb7  1  0.499951  0.524761  0.524221  1.0
  C  C8  1  0.000024  0.095387  0.003485  1.0
  I  I9  1  0.500099  0.571761  0.027564  1.0
  I  I10  1  0.499816  0.038363  0.551006  1.0
  I  I11  1  0.999964  0.562853  0.494216  1.0
  N  N12  1  0.000194  0.865128  0.975112  1.0
