# generated using pymatgen
data_MgPd5
_symmetry_space_group_name_H-M   'P 1'
_cell_length_a   4.58296161
_cell_length_b   4.86576958
_cell_length_c   4.86630627
_cell_angle_alpha   60.00436340
_cell_angle_beta   90.00000000
_cell_angle_gamma   90.00000000
_symmetry_Int_Tables_number   1
_chemical_formula_structural   MgPd5
_chemical_formula_sum   'Mg1 Pd5'
_cell_volume   93.98248458
_cell_formula_units_Z   1
loop_
 _symmetry_equiv_pos_site_id
 _symmetry_equiv_pos_as_xyz
  1  'x, y, z'
loop_
 _atom_site_type_symbol
 _atom_site_label
 _atom_site_symmetry_multiplicity
 _atom_site_fract_x
 _atom_site_fract_y
 _atom_site_fract_z
 _atom_site_occupancy
  Mg  Mg1  1  0.500000  0.666648  0.333280  1.0
  Pd  Pd2  1  0.000000  0.331217  0.333286  1.0
  Pd  Pd3  1  0.500000  0.000043  0.666840  1.0
  Pd  Pd4  1  0.000000  0.666652  0.668705  1.0
  Pd  Pd5  1  0.000000  0.002062  0.997934  1.0
  Pd  Pd6  1  0.500000  0.333378  0.999954  1.0
