# generated using pymatgen
data_LiGaRh2
_symmetry_space_group_name_H-M   'P 1'
_cell_length_a   4.21890105
_cell_length_b   4.21889890
_cell_length_c   4.21888991
_cell_angle_alpha   59.99998697
_cell_angle_beta   59.99995731
_cell_angle_gamma   60.00002600
_symmetry_Int_Tables_number   1
_chemical_formula_structural   LiGaRh2
_chemical_formula_sum   'Li1 Ga1 Rh2'
_cell_volume   53.09841473
_cell_formula_units_Z   1
loop_
 _symmetry_equiv_pos_site_id
 _symmetry_equiv_pos_as_xyz
  1  'x, y, z'
loop_
 _atom_site_type_symbol
 _atom_site_label
 _atom_site_symmetry_multiplicity
 _atom_site_fract_x
 _atom_site_fract_y
 _atom_site_fract_z
 _atom_site_occupancy
  Li  Li1  1  0.749999  0.749999  0.749999  1.0
  Ga  Ga2  1  0.249999  0.250000  0.250000  1.0
  Rh  Rh3  1  0.000000  0.000000  0.000000  1.0
  Rh  Rh4  1  0.499999  0.499999  0.499999  1.0
