# generated using pymatgen
data_CsAlO2
_symmetry_space_group_name_H-M   'P 1'
_cell_length_a   5.80309718
_cell_length_b   5.80309718
_cell_length_c   5.80309718
_cell_angle_alpha   60.00000002
_cell_angle_beta   60.00000001
_cell_angle_gamma   60.00000002
_symmetry_Int_Tables_number   1
_chemical_formula_structural   CsAlO2
_chemical_formula_sum   'Cs2 Al2 O4'
_cell_volume   138.18615492
_cell_formula_units_Z   2
loop_
 _symmetry_equiv_pos_site_id
 _symmetry_equiv_pos_as_xyz
  1  'x, y, z'
loop_
 _atom_site_type_symbol
 _atom_site_label
 _atom_site_symmetry_multiplicity
 _atom_site_fract_x
 _atom_site_fract_y
 _atom_site_fract_z
 _atom_site_occupancy
  Cs  Cs1  1  0.625000  0.625000  0.625000  1.0
  Cs  Cs2  1  0.375000  0.375000  0.375000  1.0
  Al  Al3  1  0.875000  0.875000  0.875000  1.0
  Al  Al4  1  0.125000  0.125000  0.125000  1.0
  O  O5  1  0.000000  0.500000  0.000000  1.0
  O  O6  1  0.500000  0.000000  0.000000  1.0
  O  O7  1  0.000000  0.000000  0.000000  1.0
  O  O8  1  0.000000  0.000000  0.500000  1.0
