# generated using pymatgen
data_NaPt2
_symmetry_space_group_name_H-M   'P 1'
_cell_length_a   5.36705418
_cell_length_b   5.36705417
_cell_length_c   5.36705417
_cell_angle_alpha   59.99999997
_cell_angle_beta   59.99999998
_cell_angle_gamma   59.99999994
_symmetry_Int_Tables_number   1
_chemical_formula_structural   NaPt2
_chemical_formula_sum   'Na2 Pt4'
_cell_volume   109.31831743
_cell_formula_units_Z   2
loop_
 _symmetry_equiv_pos_site_id
 _symmetry_equiv_pos_as_xyz
  1  'x, y, z'
loop_
 _atom_site_type_symbol
 _atom_site_label
 _atom_site_symmetry_multiplicity
 _atom_site_fract_x
 _atom_site_fract_y
 _atom_site_fract_z
 _atom_site_occupancy
  Na  Na1  1  0.875000  0.875000  0.875000  1.0
  Na  Na2  1  0.125000  0.125000  0.125000  1.0
  Pt  Pt3  1  0.500000  0.500000  0.500000  1.0
  Pt  Pt4  1  0.500000  0.500000  0.000000  1.0
  Pt  Pt5  1  0.000000  0.500000  0.500000  1.0
  Pt  Pt6  1  0.500000  0.000000  0.500000  1.0
