# generated using pymatgen
data_MgMnPt2
_symmetry_space_group_name_H-M   'P 1'
_cell_length_a   4.43850037
_cell_length_b   4.43850161
_cell_length_c   4.43848946
_cell_angle_alpha   59.99993718
_cell_angle_beta   59.99964201
_cell_angle_gamma   59.99979705
_symmetry_Int_Tables_number   1
_chemical_formula_structural   MgMnPt2
_chemical_formula_sum   'Mg1 Mn1 Pt2'
_cell_volume   61.82879606
_cell_formula_units_Z   1
loop_
 _symmetry_equiv_pos_site_id
 _symmetry_equiv_pos_as_xyz
  1  'x, y, z'
loop_
 _atom_site_type_symbol
 _atom_site_label
 _atom_site_symmetry_multiplicity
 _atom_site_fract_x
 _atom_site_fract_y
 _atom_site_fract_z
 _atom_site_occupancy
  Mg  Mg1  1  0.250000  0.249999  0.249998  1.0
  Mn  Mn2  1  0.750000  0.750001  0.750001  1.0
  Pt  Pt3  1  0.000000  0.000001  0.999997  1.0
  Pt  Pt4  1  0.499999  0.500000  0.500003  1.0
