# generated using pymatgen
data_Lu2MgHg
_symmetry_space_group_name_H-M   'P 1'
_cell_length_a   5.19713014
_cell_length_b   5.19715363
_cell_length_c   5.19716854
_cell_angle_alpha   59.99825638
_cell_angle_beta   59.99881870
_cell_angle_gamma   59.99964642
_symmetry_Int_Tables_number   1
_chemical_formula_structural   Lu2MgHg
_chemical_formula_sum   'Lu2 Mg1 Hg1'
_cell_volume   99.25906708
_cell_formula_units_Z   1
loop_
 _symmetry_equiv_pos_site_id
 _symmetry_equiv_pos_as_xyz
  1  'x, y, z'
loop_
 _atom_site_type_symbol
 _atom_site_label
 _atom_site_symmetry_multiplicity
 _atom_site_fract_x
 _atom_site_fract_y
 _atom_site_fract_z
 _atom_site_occupancy
  Lu  Lu1  1  0.000004  0.999997  0.000002  1.0
  Lu  Lu2  1  0.499994  0.500007  0.499997  1.0
  Mg  Mg3  1  0.750004  0.749993  0.749998  1.0
  Hg  Hg4  1  0.249997  0.250002  0.250002  1.0
