# generated using pymatgen
data_ZrTiTe4
_symmetry_space_group_name_H-M   'P 1'
_cell_length_a   3.88223158
_cell_length_b   6.94284730
_cell_length_c   6.70266789
_cell_angle_alpha   90.12728196
_cell_angle_beta   90.00000000
_cell_angle_gamma   90.00000000
_symmetry_Int_Tables_number   1
_chemical_formula_structural   ZrTiTe4
_chemical_formula_sum   'Zr1 Ti1 Te4'
_cell_volume   180.66152882
_cell_formula_units_Z   1
loop_
 _symmetry_equiv_pos_site_id
 _symmetry_equiv_pos_as_xyz
  1  'x, y, z'
loop_
 _atom_site_type_symbol
 _atom_site_label
 _atom_site_symmetry_multiplicity
 _atom_site_fract_x
 _atom_site_fract_y
 _atom_site_fract_z
 _atom_site_occupancy
  Zr  Zr1  1  0.500000  0.000000  0.500000  1.0
  Ti  Ti2  1  0.000000  0.000000  0.000000  1.0
  Te  Te3  1  0.500000  0.749620  0.844051  1.0
  Te  Te4  1  0.500000  0.250380  0.155949  1.0
  Te  Te5  1  0.000000  0.740560  0.322715  1.0
  Te  Te6  1  0.000000  0.259440  0.677285  1.0
