# generated using pymatgen
data_LiEr2Ga
_symmetry_space_group_name_H-M   'P 1'
_cell_length_a   5.05005181
_cell_length_b   5.05007320
_cell_length_c   5.05007444
_cell_angle_alpha   60.00002334
_cell_angle_beta   60.00135207
_cell_angle_gamma   60.00018124
_symmetry_Int_Tables_number   1
_chemical_formula_structural   LiEr2Ga
_chemical_formula_sum   'Li1 Er2 Ga1'
_cell_volume   91.07127105
_cell_formula_units_Z   1
loop_
 _symmetry_equiv_pos_site_id
 _symmetry_equiv_pos_as_xyz
  1  'x, y, z'
loop_
 _atom_site_type_symbol
 _atom_site_label
 _atom_site_symmetry_multiplicity
 _atom_site_fract_x
 _atom_site_fract_y
 _atom_site_fract_z
 _atom_site_occupancy
  Li  Li1  1  0.750001  0.750001  0.749996  1.0
  Er  Er2  1  0.999998  0.999990  0.000001  1.0
  Er  Er3  1  0.499995  0.500009  0.500005  1.0
  Ga  Ga4  1  0.250005  0.250000  0.249998  1.0
