# generated using pymatgen
data_YbC2
_symmetry_space_group_name_H-M   'P 1'
_cell_length_a   3.81584564
_cell_length_b   3.81584564
_cell_length_c   4.19628206
_cell_angle_alpha   117.04369209
_cell_angle_beta   117.04369215
_cell_angle_gamma   89.99999989
_symmetry_Int_Tables_number   1
_chemical_formula_structural   YbC2
_chemical_formula_sum   'Yb1 C2'
_cell_volume   46.79495658
_cell_formula_units_Z   1
loop_
 _symmetry_equiv_pos_site_id
 _symmetry_equiv_pos_as_xyz
  1  'x, y, z'
loop_
 _atom_site_type_symbol
 _atom_site_label
 _atom_site_symmetry_multiplicity
 _atom_site_fract_x
 _atom_site_fract_y
 _atom_site_fract_z
 _atom_site_occupancy
  Yb  Yb1  1  0.000000  0.000000  0.000000  1.0
  C  C2  1  0.598083  0.598083  0.196165  1.0
  C  C3  1  0.401917  0.401917  0.803835  1.0
