# generated using pymatgen
data_K3CrO4
_symmetry_space_group_name_H-M   'P 1'
_cell_length_a   6.14423949
_cell_length_b   8.50865584
_cell_length_c   6.14424011
_cell_angle_alpha   90.00000010
_cell_angle_beta   89.99999492
_cell_angle_gamma   89.99999456
_symmetry_Int_Tables_number   1
_chemical_formula_structural   K3CrO4
_chemical_formula_sum   'K6 Cr2 O8'
_cell_volume   321.21607564
_cell_formula_units_Z   2
loop_
 _symmetry_equiv_pos_site_id
 _symmetry_equiv_pos_as_xyz
  1  'x, y, z'
loop_
 _atom_site_type_symbol
 _atom_site_label
 _atom_site_symmetry_multiplicity
 _atom_site_fract_x
 _atom_site_fract_y
 _atom_site_fract_z
 _atom_site_occupancy
  K  K1  1  0.000000  0.250026  0.500000  1.0
  K  K2  1  0.500000  0.749974  0.000000  1.0
  K  K3  1  0.500000  0.250026  0.000000  1.0
  K  K4  1  0.000000  0.749974  0.500000  1.0
  K  K5  1  0.000000  0.500000  0.000000  1.0
  K  K6  1  0.500000  0.000000  0.500000  1.0
  Cr  Cr7  1  0.000000  0.000000  0.000000  1.0
  Cr  Cr8  1  0.500000  0.500000  0.500000  1.0
  O  O9  1  0.331114  0.608446  0.668886  1.0
  O  O10  1  0.831127  0.108450  0.168873  1.0
  O  O11  1  0.831127  0.891550  0.831127  1.0
  O  O12  1  0.331114  0.391554  0.331114  1.0
  O  O13  1  0.668886  0.391554  0.668886  1.0
  O  O14  1  0.168873  0.891550  0.168873  1.0
  O  O15  1  0.168873  0.108450  0.831127  1.0
  O  O16  1  0.668886  0.608446  0.331114  1.0
