# generated using pymatgen
data_BaMgO2
_symmetry_space_group_name_H-M   'P 1'
_cell_length_a   5.97535980
_cell_length_b   5.97552211
_cell_length_c   6.83851010
_cell_angle_alpha   90.00442426
_cell_angle_beta   89.99632326
_cell_angle_gamma   120.00140369
_symmetry_Int_Tables_number   1
_chemical_formula_structural   BaMgO2
_chemical_formula_sum   'Ba3 Mg3 O6'
_cell_volume   211.45886582
_cell_formula_units_Z   3
loop_
 _symmetry_equiv_pos_site_id
 _symmetry_equiv_pos_as_xyz
  1  'x, y, z'
loop_
 _atom_site_type_symbol
 _atom_site_label
 _atom_site_symmetry_multiplicity
 _atom_site_fract_x
 _atom_site_fract_y
 _atom_site_fract_z
 _atom_site_occupancy
  Ba  Ba1  1  0.999917  0.653614  0.166690  1.0
  Ba  Ba2  1  0.346365  0.346313  0.499978  1.0
  Ba  Ba3  1  0.653622  0.999928  0.833333  1.0
  Mg  Mg4  1  0.999965  0.574752  0.666688  1.0
  Mg  Mg5  1  0.425199  0.425207  0.999998  1.0
  Mg  Mg6  1  0.574756  0.999946  0.333330  1.0
  O  O7  1  0.297624  0.869036  0.540136  1.0
  O  O8  1  0.130985  0.428459  0.873351  1.0
  O  O9  1  0.571596  0.702520  0.206856  1.0
  O  O10  1  0.428443  0.131005  0.126678  1.0
  O  O11  1  0.702513  0.571594  0.793146  1.0
  O  O12  1  0.869017  0.297628  0.459881  1.0
