# generated using pymatgen
data_La(CoAs)2
_symmetry_space_group_name_H-M   'P 1'
_cell_length_a   4.08000419
_cell_length_b   4.08000435
_cell_length_c   5.94180956
_cell_angle_alpha   110.07988741
_cell_angle_beta   110.07988822
_cell_angle_gamma   90.00000014
_symmetry_Int_Tables_number   1
_chemical_formula_structural   La(CoAs)2
_chemical_formula_sum   'La1 Co2 As2'
_cell_volume   86.46839500
_cell_formula_units_Z   1
loop_
 _symmetry_equiv_pos_site_id
 _symmetry_equiv_pos_as_xyz
  1  'x, y, z'
loop_
 _atom_site_type_symbol
 _atom_site_label
 _atom_site_symmetry_multiplicity
 _atom_site_fract_x
 _atom_site_fract_y
 _atom_site_fract_z
 _atom_site_occupancy
  La  La1  1  0.000000  0.000000  0.000000  1.0
  Co  Co2  1  0.250000  0.750000  0.500000  1.0
  Co  Co3  1  0.750000  0.250000  0.500000  1.0
  As  As4  1  0.362314  0.362314  0.724629  1.0
  As  As5  1  0.637686  0.637686  0.275371  1.0
