# generated using pymatgen
data_Li2CoO2
_symmetry_space_group_name_H-M   'P 1'
_cell_length_a   3.15167743
_cell_length_b   3.15436387
_cell_length_c   5.12425282
_cell_angle_alpha   89.96835330
_cell_angle_beta   90.00000000
_cell_angle_gamma   119.97182100
_symmetry_Int_Tables_number   1
_chemical_formula_structural   Li2CoO2
_chemical_formula_sum   'Li2 Co1 O2'
_cell_volume   44.13040281
_cell_formula_units_Z   1
loop_
 _symmetry_equiv_pos_site_id
 _symmetry_equiv_pos_as_xyz
  1  'x, y, z'
loop_
 _atom_site_type_symbol
 _atom_site_label
 _atom_site_symmetry_multiplicity
 _atom_site_fract_x
 _atom_site_fract_y
 _atom_site_fract_z
 _atom_site_occupancy
  Li  Li1  1  0.333349  0.666778  0.642531  1.0
  Li  Li2  1  0.666570  0.333222  0.357469  1.0
  Co  Co3  1  0.999960  0.000000  0.000000  1.0
  O  O4  1  0.333440  0.666957  0.237127  1.0
  O  O5  1  0.666482  0.333043  0.762873  1.0
