# generated using pymatgen
data_Ti2MnFe
_symmetry_space_group_name_H-M   'P 1'
_cell_length_a   4.19923491
_cell_length_b   4.19923259
_cell_length_c   4.19923401
_cell_angle_alpha   59.99988353
_cell_angle_beta   59.99998089
_cell_angle_gamma   59.99996468
_symmetry_Int_Tables_number   1
_chemical_formula_structural   Ti2MnFe
_chemical_formula_sum   'Ti2 Mn1 Fe1'
_cell_volume   52.35939491
_cell_formula_units_Z   1
loop_
 _symmetry_equiv_pos_site_id
 _symmetry_equiv_pos_as_xyz
  1  'x, y, z'
loop_
 _atom_site_type_symbol
 _atom_site_label
 _atom_site_symmetry_multiplicity
 _atom_site_fract_x
 _atom_site_fract_y
 _atom_site_fract_z
 _atom_site_occupancy
  Ti  Ti1  1  0.000000  0.999999  0.999999  1.0
  Ti  Ti2  1  0.499999  0.500000  0.499998  1.0
  Mn  Mn3  1  0.750002  0.750000  0.750002  1.0
  Fe  Fe4  1  0.249999  0.250001  0.250000  1.0
