# generated using pymatgen
data_Na(BH)6
_symmetry_space_group_name_H-M   'P 1'
_cell_length_a   7.02650089
_cell_length_b   10.59084482
_cell_length_c   6.85677719
_cell_angle_alpha   90.00003564
_cell_angle_beta   95.34282846
_cell_angle_gamma   90.00002102
_symmetry_Int_Tables_number   1
_chemical_formula_structural   Na(BH)6
_chemical_formula_sum   'Na4 B24 H24'
_cell_volume   508.04103190
_cell_formula_units_Z   4
loop_
 _symmetry_equiv_pos_site_id
 _symmetry_equiv_pos_as_xyz
  1  'x, y, z'
loop_
 _atom_site_type_symbol
 _atom_site_label
 _atom_site_symmetry_multiplicity
 _atom_site_fract_x
 _atom_site_fract_y
 _atom_site_fract_z
 _atom_site_occupancy
  Na  Na1  1  0.511751  0.809559  0.624200  1.0
  Na  Na2  1  0.988249  0.309559  0.875802  1.0
  Na  Na3  1  0.488246  0.190442  0.375799  1.0
  Na  Na4  1  0.011750  0.690442  0.124200  1.0
  B  B5  1  0.574465  0.651365  0.984174  1.0
  B  B6  1  0.925535  0.151365  0.515827  1.0
  B  B7  1  0.425535  0.348635  0.015826  1.0
  B  B8  1  0.074465  0.848635  0.484173  1.0
  B  B9  1  0.279446  0.478290  0.072158  1.0
  B  B10  1  0.220554  0.978290  0.427841  1.0
  B  B11  1  0.720555  0.521710  0.927841  1.0
  B  B12  1  0.779446  0.021710  0.572159  1.0
  B  B13  1  0.430550  0.602682  0.169282  1.0
  B  B14  1  0.069450  0.102682  0.330718  1.0
  B  B15  1  0.569450  0.397318  0.830719  1.0
  B  B16  1  0.930549  0.897318  0.669283  1.0
  B  B17  1  0.512777  0.557555  0.771141  1.0
  B  B18  1  0.987224  0.057556  0.728859  1.0
  B  B19  1  0.487224  0.442445  0.228859  1.0
  B  B20  1  0.012776  0.942445  0.271140  1.0
  B  B21  1  0.332323  0.607407  0.919947  1.0
  B  B22  1  0.167677  0.107407  0.580052  1.0
  B  B23  1  0.667678  0.392593  0.080053  1.0
  B  B24  1  0.832322  0.892593  0.419947  1.0
  B  B25  1  0.328862  0.451260  0.824734  1.0
  B  B26  1  0.171139  0.951260  0.675265  1.0
  B  B27  1  0.671138  0.548739  0.175264  1.0
  B  B28  1  0.828863  0.048739  0.324737  1.0
  H  H29  1  0.213976  0.683679  0.860268  1.0
  H  H30  1  0.286026  0.183679  0.639734  1.0
  H  H31  1  0.786026  0.316321  0.139733  1.0
  H  H32  1  0.713975  0.816321  0.360267  1.0
  H  H33  1  0.209445  0.419011  0.696839  1.0
  H  H34  1  0.290555  0.919012  0.803159  1.0
  H  H35  1  0.790556  0.580989  0.303160  1.0
  H  H36  1  0.709444  0.080989  0.196838  1.0
  H  H37  1  0.523839  0.594771  0.607351  1.0
  H  H38  1  0.976161  0.094772  0.892650  1.0
  H  H39  1  0.476161  0.405228  0.392649  1.0
  H  H40  1  0.023840  0.905229  0.107350  1.0
  H  H41  1  0.379563  0.675830  0.287875  1.0
  H  H42  1  0.120438  0.175830  0.212126  1.0
  H  H43  1  0.620437  0.324169  0.712124  1.0
  H  H44  1  0.879563  0.824169  0.787875  1.0
  H  H45  1  0.626960  0.759543  0.975189  1.0
  H  H46  1  0.873040  0.259544  0.524810  1.0
  H  H47  1  0.373040  0.240457  0.024810  1.0
  H  H48  1  0.126960  0.740457  0.475189  1.0
  H  H49  1  0.124062  0.462072  0.129584  1.0
  H  H50  1  0.375938  0.962072  0.370415  1.0
  H  H51  1  0.875938  0.537928  0.870416  1.0
  H  H52  1  0.624061  0.037928  0.629585  1.0
