# generated using pymatgen
data_Ca3Al7Ag2
_symmetry_space_group_name_H-M   'P 1'
_cell_length_a   9.53436922
_cell_length_b   9.53436922
_cell_length_c   9.53436922
_cell_angle_alpha   34.38914733
_cell_angle_beta   34.38914732
_cell_angle_gamma   34.38914735
_symmetry_Int_Tables_number   1
_chemical_formula_structural   Ca3Al7Ag2
_chemical_formula_sum   'Ca3 Al7 Ag2'
_cell_volume   246.61839625
_cell_formula_units_Z   1
loop_
 _symmetry_equiv_pos_site_id
 _symmetry_equiv_pos_as_xyz
  1  'x, y, z'
loop_
 _atom_site_type_symbol
 _atom_site_label
 _atom_site_symmetry_multiplicity
 _atom_site_fract_x
 _atom_site_fract_y
 _atom_site_fract_z
 _atom_site_occupancy
  Ca  Ca1  1  0.000000  0.000000  0.000000  1.0
  Ca  Ca2  1  0.143290  0.143290  0.143290  1.0
  Ca  Ca3  1  0.856710  0.856710  0.856710  1.0
  Al  Al4  1  0.414394  0.414394  0.923693  1.0
  Al  Al5  1  0.414394  0.923693  0.414394  1.0
  Al  Al6  1  0.500000  0.500000  0.500000  1.0
  Al  Al7  1  0.585606  0.585606  0.076307  1.0
  Al  Al8  1  0.923693  0.414394  0.414394  1.0
  Al  Al9  1  0.585606  0.076307  0.585606  1.0
  Al  Al10  1  0.076307  0.585606  0.585606  1.0
  Ag  Ag11  1  0.664329  0.664329  0.664329  1.0
  Ag  Ag12  1  0.335671  0.335671  0.335671  1.0
