# generated using pymatgen
data_UB2Os3
_symmetry_space_group_name_H-M   'P 1'
_cell_length_a   11.15375954
_cell_length_b   11.13343339
_cell_length_c   5.92022385
_cell_angle_alpha   89.99878033
_cell_angle_beta   90.00037713
_cell_angle_gamma   119.93956281
_symmetry_Int_Tables_number   1
_chemical_formula_structural   UB2Os3
_chemical_formula_sum   'U8 B16 Os24'
_cell_volume   637.06437231
_cell_formula_units_Z   8
loop_
 _symmetry_equiv_pos_site_id
 _symmetry_equiv_pos_as_xyz
  1  'x, y, z'
loop_
 _atom_site_type_symbol
 _atom_site_label
 _atom_site_symmetry_multiplicity
 _atom_site_fract_x
 _atom_site_fract_y
 _atom_site_fract_z
 _atom_site_occupancy
  U  U1  1  0.000000  0.000000  0.000000  1.0
  U  U2  1  0.000000  0.000000  0.500000  1.0
  U  U3  1  0.500000  0.500000  0.000000  1.0
  U  U4  1  0.000000  0.500000  0.000000  1.0
  U  U5  1  0.500000  0.000000  0.000000  1.0
  U  U6  1  0.500000  0.500000  0.500000  1.0
  U  U7  1  0.000000  0.500000  0.500000  1.0
  U  U8  1  0.500000  0.000000  0.500000  1.0
  B  B9  1  0.666518  0.333263  0.000705  1.0
  B  B10  1  0.333482  0.666737  0.999295  1.0
  B  B11  1  0.666519  0.333265  0.499257  1.0
  B  B12  1  0.333481  0.666735  0.500743  1.0
  B  B13  1  0.833960  0.166649  0.000183  1.0
  B  B14  1  0.332858  0.166247  0.000182  1.0
  B  B15  1  0.833580  0.667316  0.000184  1.0
  B  B16  1  0.166040  0.833351  0.999817  1.0
  B  B17  1  0.667142  0.833753  0.999818  1.0
  B  B18  1  0.166420  0.332684  0.999816  1.0
  B  B19  1  0.833814  0.166979  0.499845  1.0
  B  B20  1  0.333344  0.166394  0.499847  1.0
  B  B21  1  0.833247  0.666828  0.499846  1.0
  B  B22  1  0.166186  0.833021  0.500155  1.0
  B  B23  1  0.666656  0.833606  0.500153  1.0
  B  B24  1  0.166753  0.333172  0.500154  1.0
  Os  Os25  1  0.749888  0.249900  0.750116  1.0
  Os  Os26  1  0.499985  0.250026  0.750135  1.0
  Os  Os27  1  0.750060  0.499990  0.750137  1.0
  Os  Os28  1  0.250112  0.750100  0.249884  1.0
  Os  Os29  1  0.500015  0.749974  0.249865  1.0
  Os  Os30  1  0.249940  0.500010  0.249863  1.0
  Os  Os31  1  0.249780  0.749926  0.750163  1.0
  Os  Os32  1  0.500175  0.750299  0.750173  1.0
  Os  Os33  1  0.250091  0.499846  0.750169  1.0
  Os  Os34  1  0.750220  0.250074  0.249837  1.0
  Os  Os35  1  0.499825  0.249701  0.249827  1.0
  Os  Os36  1  0.749909  0.500154  0.249831  1.0
  Os  Os37  1  0.000101  0.250270  0.749731  1.0
  Os  Os38  1  0.250173  0.999895  0.749738  1.0
  Os  Os39  1  0.749761  0.749850  0.749743  1.0
  Os  Os40  1  0.999899  0.749730  0.250269  1.0
  Os  Os41  1  0.749827  0.000105  0.250262  1.0
  Os  Os42  1  0.250239  0.250150  0.250257  1.0
  Os  Os43  1  0.999805  0.750037  0.749946  1.0
  Os  Os44  1  0.750224  0.000198  0.749946  1.0
  Os  Os45  1  0.249947  0.249760  0.749951  1.0
  Os  Os46  1  0.000195  0.249963  0.250054  1.0
  Os  Os47  1  0.249776  0.999802  0.250054  1.0
  Os  Os48  1  0.750053  0.750240  0.250049  1.0
