# generated using pymatgen
data_K(CoAs)2
_symmetry_space_group_name_H-M   'P 1'
_cell_length_a   3.79751163
_cell_length_b   3.79751192
_cell_length_c   7.33661052
_cell_angle_alpha   104.99920233
_cell_angle_beta   104.99920353
_cell_angle_gamma   89.99999563
_symmetry_Int_Tables_number   1
_chemical_formula_structural   K(CoAs)2
_chemical_formula_sum   'K1 Co2 As2'
_cell_volume   98.46061157
_cell_formula_units_Z   1
loop_
 _symmetry_equiv_pos_site_id
 _symmetry_equiv_pos_as_xyz
  1  'x, y, z'
loop_
 _atom_site_type_symbol
 _atom_site_label
 _atom_site_symmetry_multiplicity
 _atom_site_fract_x
 _atom_site_fract_y
 _atom_site_fract_z
 _atom_site_occupancy
  K  K1  1  0.000000  0.000000  0.000000  1.0
  Co  Co2  1  0.250000  0.750000  0.500000  1.0
  Co  Co3  1  0.750000  0.250000  0.500000  1.0
  As  As4  1  0.346577  0.346577  0.693155  1.0
  As  As5  1  0.653423  0.653423  0.306845  1.0
