# generated using pymatgen
data_Pb2O
_symmetry_space_group_name_H-M   'P 1'
_cell_length_a   5.47235395
_cell_length_b   5.47235395
_cell_length_c   5.47235395
_cell_angle_alpha   90.00128280
_cell_angle_beta   90.00128280
_cell_angle_gamma   89.99871720
_symmetry_Int_Tables_number   1
_chemical_formula_structural   Pb2O
_chemical_formula_sum   'Pb4 O2'
_cell_volume   163.87871073
_cell_formula_units_Z   2
loop_
 _symmetry_equiv_pos_site_id
 _symmetry_equiv_pos_as_xyz
  1  'x, y, z'
loop_
 _atom_site_type_symbol
 _atom_site_label
 _atom_site_symmetry_multiplicity
 _atom_site_fract_x
 _atom_site_fract_y
 _atom_site_fract_z
 _atom_site_occupancy
  Pb  Pb1  1  0.750001  0.750001  0.249999  1.0
  Pb  Pb2  1  0.750001  0.249999  0.750001  1.0
  Pb  Pb3  1  0.249999  0.750001  0.750001  1.0
  Pb  Pb4  1  0.249999  0.249999  0.249999  1.0
  O  O5  1  0.000036  0.000036  0.999964  1.0
  O  O6  1  0.499964  0.499964  0.500036  1.0
