# generated using pymatgen
data_KY2Ti2S2O5
_symmetry_space_group_name_H-M   'P 1'
_cell_length_a   3.73444421
_cell_length_b   3.73444421
_cell_length_c   15.01416546
_cell_angle_alpha   90.00000000
_cell_angle_beta   90.00000000
_cell_angle_gamma   90.00000000
_symmetry_Int_Tables_number   1
_chemical_formula_structural   KY2Ti2S2O5
_chemical_formula_sum   'K1 Y2 Ti2 S2 O5'
_cell_volume   209.38865591
_cell_formula_units_Z   1
loop_
 _symmetry_equiv_pos_site_id
 _symmetry_equiv_pos_as_xyz
  1  'x, y, z'
loop_
 _atom_site_type_symbol
 _atom_site_label
 _atom_site_symmetry_multiplicity
 _atom_site_fract_x
 _atom_site_fract_y
 _atom_site_fract_z
 _atom_site_occupancy
  K  K1  1  0.500000  0.500000  0.500000  1.0
  Y  Y2  1  0.500000  0.500000  0.742296  1.0
  Y  Y3  1  0.500000  0.500000  0.257704  1.0
  Ti  Ti4  1  0.000000  0.000000  0.878869  1.0
  Ti  Ti5  1  0.000000  0.000000  0.121131  1.0
  S  S6  1  0.000000  0.000000  0.349646  1.0
  S  S7  1  0.000000  0.000000  0.650354  1.0
  O  O8  1  0.500000  0.000000  0.833336  1.0
  O  O9  1  0.000000  0.500000  0.833336  1.0
  O  O10  1  0.000000  0.500000  0.166664  1.0
  O  O11  1  0.000000  0.000000  0.000000  1.0
  O  O12  1  0.500000  0.000000  0.166664  1.0
