# generated using pymatgen
data_Cs2TlInBr6
_symmetry_space_group_name_H-M   'P 1'
_cell_length_a   8.34514045
_cell_length_b   8.34514089
_cell_length_c   8.34514087
_cell_angle_alpha   59.99999864
_cell_angle_beta   59.99999798
_cell_angle_gamma   59.99999804
_symmetry_Int_Tables_number   1
_chemical_formula_structural   Cs2TlInBr6
_chemical_formula_sum   'Cs2 Tl1 In1 Br6'
_cell_volume   410.94715708
_cell_formula_units_Z   1
loop_
 _symmetry_equiv_pos_site_id
 _symmetry_equiv_pos_as_xyz
  1  'x, y, z'
loop_
 _atom_site_type_symbol
 _atom_site_label
 _atom_site_symmetry_multiplicity
 _atom_site_fract_x
 _atom_site_fract_y
 _atom_site_fract_z
 _atom_site_occupancy
  Cs  Cs1  1  0.250000  0.250000  0.250000  1.0
  Cs  Cs2  1  0.750000  0.750000  0.750000  1.0
  Tl  Tl3  1  0.500000  0.500000  0.500000  1.0
  In  In4  1  0.000000  0.000000  0.000000  1.0
  Br  Br5  1  0.230622  0.769378  0.230622  1.0
  Br  Br6  1  0.769378  0.769378  0.230622  1.0
  Br  Br7  1  0.769378  0.230622  0.769378  1.0
  Br  Br8  1  0.769378  0.230622  0.230622  1.0
  Br  Br9  1  0.230622  0.769378  0.769378  1.0
  Br  Br10  1  0.230622  0.230622  0.769378  1.0
