# generated using pymatgen
data_Th(Al2Cr)4
_symmetry_space_group_name_H-M   'P 1'
_cell_length_a   5.02549787
_cell_length_b   6.85313239
_cell_length_c   6.85313239
_cell_angle_alpha   82.27391403
_cell_angle_beta   68.49040735
_cell_angle_gamma   68.49040732
_symmetry_Int_Tables_number   1
_chemical_formula_structural   Th(Al2Cr)4
_chemical_formula_sum   'Th1 Al8 Cr4'
_cell_volume   204.29410889
_cell_formula_units_Z   1
loop_
 _symmetry_equiv_pos_site_id
 _symmetry_equiv_pos_as_xyz
  1  'x, y, z'
loop_
 _atom_site_type_symbol
 _atom_site_label
 _atom_site_symmetry_multiplicity
 _atom_site_fract_x
 _atom_site_fract_y
 _atom_site_fract_z
 _atom_site_occupancy
  Th  Th1  1  0.000000  0.000000  0.000000  1.0
  Al  Al2  1  0.724168  0.775832  0.775832  1.0
  Al  Al3  1  0.500000  0.224168  0.775832  1.0
  Al  Al4  1  0.500000  0.775832  0.224168  1.0
  Al  Al5  1  0.275832  0.224168  0.224168  1.0
  Al  Al6  1  0.655503  0.344497  0.344497  1.0
  Al  Al7  1  0.344497  0.655503  0.655503  1.0
  Al  Al8  1  0.000000  0.344497  0.655503  1.0
  Al  Al9  1  0.000000  0.655503  0.344497  1.0
  Cr  Cr10  1  0.000000  0.000000  0.500000  1.0
  Cr  Cr11  1  0.500000  0.500000  0.000000  1.0
  Cr  Cr12  1  0.000000  0.500000  0.000000  1.0
  Cr  Cr13  1  0.500000  0.000000  0.500000  1.0
