# generated using pymatgen
data_Li2PrP2
_symmetry_space_group_name_H-M   'P 1'
_cell_length_a   4.20032536
_cell_length_b   4.20090072
_cell_length_c   6.85004145
_cell_angle_alpha   90.00000003
_cell_angle_beta   89.97185798
_cell_angle_gamma   120.00454583
_symmetry_Int_Tables_number   1
_chemical_formula_structural   Li2PrP2
_chemical_formula_sum   'Li2 Pr1 P2'
_cell_volume   104.67168518
_cell_formula_units_Z   1
loop_
 _symmetry_equiv_pos_site_id
 _symmetry_equiv_pos_as_xyz
  1  'x, y, z'
loop_
 _atom_site_type_symbol
 _atom_site_label
 _atom_site_symmetry_multiplicity
 _atom_site_fract_x
 _atom_site_fract_y
 _atom_site_fract_z
 _atom_site_occupancy
  Li  Li1  1  0.333580  0.666790  0.624352  1.0
  Li  Li2  1  0.666420  0.333210  0.375648  1.0
  Pr  Pr3  1  0.000000  0.000000  0.000000  1.0
  P  P4  1  0.333277  0.666638  0.245420  1.0
  P  P5  1  0.666723  0.333362  0.754580  1.0
