# generated using pymatgen
data_LiLu2Ga
_symmetry_space_group_name_H-M   'P 1'
_cell_length_a   4.98327115
_cell_length_b   4.98327115
_cell_length_c   4.98327115
_cell_angle_alpha   60.00000000
_cell_angle_beta   60.00000000
_cell_angle_gamma   60.00000000
_symmetry_Int_Tables_number   1
_chemical_formula_structural   LiLu2Ga
_chemical_formula_sum   'Li1 Lu2 Ga1'
_cell_volume   87.50413140
_cell_formula_units_Z   1
loop_
 _symmetry_equiv_pos_site_id
 _symmetry_equiv_pos_as_xyz
  1  'x, y, z'
loop_
 _atom_site_type_symbol
 _atom_site_label
 _atom_site_symmetry_multiplicity
 _atom_site_fract_x
 _atom_site_fract_y
 _atom_site_fract_z
 _atom_site_occupancy
  Li  Li1  1  0.750001  0.750001  0.750001  1.0
  Lu  Lu2  1  0.000000  0.000000  0.000000  1.0
  Lu  Lu3  1  0.500001  0.500001  0.500001  1.0
  Ga  Ga4  1  0.250000  0.250000  0.250000  1.0
