# generated using pymatgen
data_NbTe
_symmetry_space_group_name_H-M   'P 1'
_cell_length_a   3.70287790
_cell_length_b   3.70307149
_cell_length_c   3.69421090
_cell_angle_alpha   90.00206856
_cell_angle_beta   89.99732999
_cell_angle_gamma   120.00887640
_symmetry_Int_Tables_number   1
_chemical_formula_structural   NbTe
_chemical_formula_sum   'Nb1 Te1'
_cell_volume   43.86467869
_cell_formula_units_Z   1
loop_
 _symmetry_equiv_pos_site_id
 _symmetry_equiv_pos_as_xyz
  1  'x, y, z'
loop_
 _atom_site_type_symbol
 _atom_site_label
 _atom_site_symmetry_multiplicity
 _atom_site_fract_x
 _atom_site_fract_y
 _atom_site_fract_z
 _atom_site_occupancy
  Nb  Nb1  1  0.666636  0.333345  0.749989  1.0
  Te  Te2  1  0.333364  0.666657  0.250010  1.0
