# generated using pymatgen
data_DyInPt4
_symmetry_space_group_name_H-M   'P 1'
_cell_length_a   5.40711787
_cell_length_b   5.40711787
_cell_length_c   5.40711787
_cell_angle_alpha   60.00000000
_cell_angle_beta   60.00000000
_cell_angle_gamma   60.00000000
_symmetry_Int_Tables_number   1
_chemical_formula_structural   DyInPt4
_chemical_formula_sum   'Dy1 In1 Pt4'
_cell_volume   111.78473789
_cell_formula_units_Z   1
loop_
 _symmetry_equiv_pos_site_id
 _symmetry_equiv_pos_as_xyz
  1  'x, y, z'
loop_
 _atom_site_type_symbol
 _atom_site_label
 _atom_site_symmetry_multiplicity
 _atom_site_fract_x
 _atom_site_fract_y
 _atom_site_fract_z
 _atom_site_occupancy
  Dy  Dy1  1  0.750000  0.750000  0.750000  1.0
  In  In2  1  0.000000  0.000000  0.000000  1.0
  Pt  Pt3  1  0.374660  0.374660  0.374660  1.0
  Pt  Pt4  1  0.876019  0.374660  0.374660  1.0
  Pt  Pt5  1  0.374660  0.876019  0.374660  1.0
  Pt  Pt6  1  0.374660  0.374660  0.876019  1.0
