# generated using pymatgen
data_Gd2ReO5
_symmetry_space_group_name_H-M   'P 1'
_cell_length_a   5.77725130
_cell_length_b   8.64164343
_cell_length_c   8.64164343
_cell_angle_alpha   90.00000000
_cell_angle_beta   90.00000000
_cell_angle_gamma   90.00000000
_symmetry_Int_Tables_number   1
_chemical_formula_structural   Gd2ReO5
_chemical_formula_sum   'Gd8 Re4 O20'
_cell_volume   431.43357935
_cell_formula_units_Z   4
loop_
 _symmetry_equiv_pos_site_id
 _symmetry_equiv_pos_as_xyz
  1  'x, y, z'
loop_
 _atom_site_type_symbol
 _atom_site_label
 _atom_site_symmetry_multiplicity
 _atom_site_fract_x
 _atom_site_fract_y
 _atom_site_fract_z
 _atom_site_occupancy
  Gd  Gd1  1  0.249774  0.099682  0.608856  1.0
  Gd  Gd2  1  0.249774  0.891144  0.099682  1.0
  Gd  Gd3  1  0.249774  0.608856  0.400318  1.0
  Gd  Gd4  1  0.249774  0.400318  0.891144  1.0
  Gd  Gd5  1  0.750226  0.599682  0.108856  1.0
  Gd  Gd6  1  0.750226  0.391144  0.599682  1.0
  Gd  Gd7  1  0.750226  0.108856  0.900318  1.0
  Gd  Gd8  1  0.750226  0.900318  0.391144  1.0
  Re  Re9  1  0.147602  0.250000  0.250000  1.0
  Re  Re10  1  0.852398  0.750000  0.750000  1.0
  Re  Re11  1  0.540386  0.250000  0.250000  1.0
  Re  Re12  1  0.459614  0.750000  0.750000  1.0
  O  O13  1  0.000000  0.750000  0.250000  1.0
  O  O14  1  0.000000  0.250000  0.750000  1.0
  O  O15  1  0.500000  0.750000  0.250000  1.0
  O  O16  1  0.500000  0.250000  0.750000  1.0
  O  O17  1  0.904785  0.655795  0.549544  1.0
  O  O18  1  0.904785  0.950456  0.655795  1.0
  O  O19  1  0.904785  0.549544  0.844205  1.0
  O  O20  1  0.904785  0.844205  0.950456  1.0
  O  O21  1  0.095215  0.344205  0.450456  1.0
  O  O22  1  0.095215  0.049544  0.344205  1.0
  O  O23  1  0.095215  0.450456  0.155795  1.0
  O  O24  1  0.095215  0.155795  0.049544  1.0
  O  O25  1  0.600714  0.048960  0.158177  1.0
  O  O26  1  0.600714  0.341823  0.048960  1.0
  O  O27  1  0.600714  0.158177  0.451040  1.0
  O  O28  1  0.600714  0.451040  0.341823  1.0
  O  O29  1  0.399286  0.951040  0.841823  1.0
  O  O30  1  0.399286  0.658177  0.951040  1.0
  O  O31  1  0.399286  0.841823  0.548960  1.0
  O  O32  1  0.399286  0.548960  0.658177  1.0
