# generated using pymatgen
data_Rb2Cr(BrCl)2
_symmetry_space_group_name_H-M   'P 1'
_cell_length_a   5.08189056
_cell_length_b   5.08189056
_cell_length_c   9.30414423
_cell_angle_alpha   105.85947759
_cell_angle_beta   105.85947759
_cell_angle_gamma   89.96208226
_symmetry_Int_Tables_number   1
_chemical_formula_structural   Rb2Cr(BrCl)2
_chemical_formula_sum   'Rb2 Cr1 Br2 Cl2'
_cell_volume   221.62786424
_cell_formula_units_Z   1
loop_
 _symmetry_equiv_pos_site_id
 _symmetry_equiv_pos_as_xyz
  1  'x, y, z'
loop_
 _atom_site_type_symbol
 _atom_site_label
 _atom_site_symmetry_multiplicity
 _atom_site_fract_x
 _atom_site_fract_y
 _atom_site_fract_z
 _atom_site_occupancy
  Rb  Rb1  1  0.635542  0.635542  0.271084  1.0
  Rb  Rb2  1  0.364458  0.364458  0.728916  1.0
  Cr  Cr3  1  0.000000  0.000000  0.000000  1.0
  Br  Br4  1  0.846863  0.846863  0.693727  1.0
  Br  Br5  1  0.153137  0.153137  0.306273  1.0
  Cl  Cl6  1  0.500000  0.000000  0.000000  1.0
  Cl  Cl7  1  0.000000  0.500000  0.000000  1.0
