# generated using pymatgen
data_LiZnPS4
_symmetry_space_group_name_H-M   'P 1'
_cell_length_a   5.82026045
_cell_length_b   5.82026045
_cell_length_c   6.13202601
_cell_angle_alpha   118.33193657
_cell_angle_beta   118.33193648
_cell_angle_gamma   89.99999996
_symmetry_Int_Tables_number   1
_chemical_formula_structural   LiZnPS4
_chemical_formula_sum   'Li1 Zn1 P1 S4'
_cell_volume   153.98992947
_cell_formula_units_Z   1
loop_
 _symmetry_equiv_pos_site_id
 _symmetry_equiv_pos_as_xyz
  1  'x, y, z'
loop_
 _atom_site_type_symbol
 _atom_site_label
 _atom_site_symmetry_multiplicity
 _atom_site_fract_x
 _atom_site_fract_y
 _atom_site_fract_z
 _atom_site_occupancy
  Li  Li1  1  0.500000  0.500000  0.000000  1.0
  Zn  Zn2  1  0.000000  0.000000  0.000000  1.0
  P  P3  1  0.250000  0.750000  0.500000  1.0
  S  S4  1  0.926096  0.412145  0.269677  1.0
  S  S5  1  0.587855  0.656419  0.730323  1.0
  S  S6  1  0.142467  0.073904  0.730323  1.0
  S  S7  1  0.343581  0.857533  0.269677  1.0
