# generated using pymatgen
data_K2MgCl4
_symmetry_space_group_name_H-M   'P 1'
_cell_length_a   5.00544485
_cell_length_b   5.00544484
_cell_length_c   8.63855191
_cell_angle_alpha   106.84092448
_cell_angle_beta   106.84092446
_cell_angle_gamma   90.00000006
_symmetry_Int_Tables_number   1
_chemical_formula_structural   K2MgCl4
_chemical_formula_sum   'K2 Mg1 Cl4'
_cell_volume   197.43396122
_cell_formula_units_Z   1
loop_
 _symmetry_equiv_pos_site_id
 _symmetry_equiv_pos_as_xyz
  1  'x, y, z'
loop_
 _atom_site_type_symbol
 _atom_site_label
 _atom_site_symmetry_multiplicity
 _atom_site_fract_x
 _atom_site_fract_y
 _atom_site_fract_z
 _atom_site_occupancy
  K  K1  1  0.642620  0.642620  0.285239  1.0
  K  K2  1  0.357380  0.357380  0.714761  1.0
  Mg  Mg3  1  0.000000  0.000000  0.000000  1.0
  Cl  Cl4  1  0.840550  0.840550  0.681101  1.0
  Cl  Cl5  1  0.159450  0.159450  0.318899  1.0
  Cl  Cl6  1  0.000000  0.500000  0.000000  1.0
  Cl  Cl7  1  0.500000  0.000000  0.000000  1.0
