# generated using pymatgen
data_SrZnF4
_symmetry_space_group_name_H-M   'P 1'
_cell_length_a   5.53616874
_cell_length_b   5.53616874
_cell_length_c   7.10849700
_cell_angle_alpha   112.91748269
_cell_angle_beta   112.91748275
_cell_angle_gamma   89.99999996
_symmetry_Int_Tables_number   1
_chemical_formula_structural   SrZnF4
_chemical_formula_sum   'Sr2 Zn2 F8'
_cell_volume   181.85610658
_cell_formula_units_Z   2
loop_
 _symmetry_equiv_pos_site_id
 _symmetry_equiv_pos_as_xyz
  1  'x, y, z'
loop_
 _atom_site_type_symbol
 _atom_site_label
 _atom_site_symmetry_multiplicity
 _atom_site_fract_x
 _atom_site_fract_y
 _atom_site_fract_z
 _atom_site_occupancy
  Sr  Sr1  1  0.375000  0.125000  0.750000  1.0
  Sr  Sr2  1  0.625000  0.875000  0.250000  1.0
  Zn  Zn3  1  0.875000  0.625000  0.750000  1.0
  Zn  Zn4  1  0.125000  0.375000  0.250000  1.0
  F  F5  1  0.299028  0.452661  0.082692  1.0
  F  F6  1  0.630031  0.799028  0.582692  1.0
  F  F7  1  0.952661  0.283664  0.582692  1.0
  F  F8  1  0.783664  0.130031  0.082692  1.0
  F  F9  1  0.216336  0.869969  0.917308  1.0
  F  F10  1  0.047339  0.716336  0.417308  1.0
  F  F11  1  0.369969  0.200972  0.417308  1.0
  F  F12  1  0.700972  0.547339  0.917308  1.0
