# generated using pymatgen
data_CrCuSe2
_symmetry_space_group_name_H-M   'P 1'
_cell_length_a   3.74844363
_cell_length_b   3.74844363
_cell_length_c   6.72646319
_cell_angle_alpha   73.82130393
_cell_angle_beta   73.82130393
_cell_angle_gamma   60.00000257
_symmetry_Int_Tables_number   1
_chemical_formula_structural   CrCuSe2
_chemical_formula_sum   'Cr1 Cu1 Se2'
_cell_volume   77.49803263
_cell_formula_units_Z   1
loop_
 _symmetry_equiv_pos_site_id
 _symmetry_equiv_pos_as_xyz
  1  'x, y, z'
loop_
 _atom_site_type_symbol
 _atom_site_label
 _atom_site_symmetry_multiplicity
 _atom_site_fract_x
 _atom_site_fract_y
 _atom_site_fract_z
 _atom_site_occupancy
  Cr  Cr1  1  0.000643  0.000643  0.998071  1.0
  Cu  Cu2  1  0.857206  0.857206  0.428383  1.0
  Se  Se3  1  0.734669  0.734669  0.795992  1.0
  Se  Se4  1  0.255482  0.255482  0.233554  1.0
