# generated using pymatgen
data_CeSiHRu
_symmetry_space_group_name_H-M   'P 1'
_cell_length_a   4.17470035
_cell_length_b   4.17479182
_cell_length_c   7.23040890
_cell_angle_alpha   89.99558685
_cell_angle_beta   90.00205120
_cell_angle_gamma   89.99925618
_symmetry_Int_Tables_number   1
_chemical_formula_structural   CeSiHRu
_chemical_formula_sum   'Ce2 Si2 H2 Ru2'
_cell_volume   126.01521628
_cell_formula_units_Z   2
loop_
 _symmetry_equiv_pos_site_id
 _symmetry_equiv_pos_as_xyz
  1  'x, y, z'
loop_
 _atom_site_type_symbol
 _atom_site_label
 _atom_site_symmetry_multiplicity
 _atom_site_fract_x
 _atom_site_fract_y
 _atom_site_fract_z
 _atom_site_occupancy
  Ce  Ce1  1  0.250006  0.250012  0.669621  1.0
  Ce  Ce2  1  0.750002  0.749998  0.330397  1.0
  Si  Si3  1  0.249999  0.250000  0.162982  1.0
  Si  Si4  1  0.750006  0.750012  0.836994  1.0
  H  H5  1  0.750000  0.250008  0.500002  1.0
  H  H6  1  0.249998  0.750002  0.500005  1.0
  Ru  Ru7  1  0.749988  0.249980  0.000012  1.0
  Ru  Ru8  1  0.250001  0.749988  0.999985  1.0
