# generated using pymatgen
data_Ti(CrTe2)2
_symmetry_space_group_name_H-M   'P 1'
_cell_length_a   3.95914141
_cell_length_b   7.07828023
_cell_length_c   7.41259565
_cell_angle_alpha   117.81992057
_cell_angle_beta   105.48909689
_cell_angle_gamma   90.00000000
_symmetry_Int_Tables_number   1
_chemical_formula_structural   Ti(CrTe2)2
_chemical_formula_sum   'Ti1 Cr2 Te4'
_cell_volume   175.14456733
_cell_formula_units_Z   1
loop_
 _symmetry_equiv_pos_site_id
 _symmetry_equiv_pos_as_xyz
  1  'x, y, z'
loop_
 _atom_site_type_symbol
 _atom_site_label
 _atom_site_symmetry_multiplicity
 _atom_site_fract_x
 _atom_site_fract_y
 _atom_site_fract_z
 _atom_site_occupancy
  Ti  Ti1  1  0.000000  0.000000  0.000000  1.0
  Cr  Cr2  1  0.258790  0.275526  0.517579  1.0
  Cr  Cr3  1  0.741210  0.724474  0.482421  1.0
  Te  Te4  1  0.122373  0.448690  0.244746  1.0
  Te  Te5  1  0.877627  0.551310  0.755254  1.0
  Te  Te6  1  0.366066  0.030580  0.732132  1.0
  Te  Te7  1  0.633934  0.969420  0.267868  1.0
