# generated using pymatgen
data_Be12Ag
_symmetry_space_group_name_H-M   'P 1'
_cell_length_a   4.26306039
_cell_length_b   5.62572475
_cell_length_c   5.62572475
_cell_angle_alpha   81.74624133
_cell_angle_beta   67.73506365
_cell_angle_gamma   67.73506354
_symmetry_Int_Tables_number   1
_chemical_formula_structural   Be12Ag
_chemical_formula_sum   'Be12 Ag1'
_cell_volume   115.55177804
_cell_formula_units_Z   1
loop_
 _symmetry_equiv_pos_site_id
 _symmetry_equiv_pos_as_xyz
  1  'x, y, z'
loop_
 _atom_site_type_symbol
 _atom_site_label
 _atom_site_symmetry_multiplicity
 _atom_site_fract_x
 _atom_site_fract_y
 _atom_site_fract_z
 _atom_site_occupancy
  Be  Be1  1  0.500000  0.000000  0.500000  1.0
  Be  Be2  1  0.000000  0.500000  0.000000  1.0
  Be  Be3  1  0.500000  0.500000  0.000000  1.0
  Be  Be4  1  0.000000  0.000000  0.500000  1.0
  Be  Be5  1  0.353215  0.646785  0.646785  1.0
  Be  Be6  1  0.000000  0.353215  0.646785  1.0
  Be  Be7  1  0.000000  0.646785  0.353215  1.0
  Be  Be8  1  0.646785  0.353215  0.353215  1.0
  Be  Be9  1  0.265501  0.234499  0.234499  1.0
  Be  Be10  1  0.500000  0.765501  0.234499  1.0
  Be  Be11  1  0.500000  0.234499  0.765501  1.0
  Be  Be12  1  0.734499  0.765501  0.765501  1.0
  Ag  Ag13  1  0.000000  0.000000  0.000000  1.0
