# generated using pymatgen
data_Sm2Ti2S2O5
_symmetry_space_group_name_H-M   'P 1'
_cell_length_a   3.84291009
_cell_length_b   3.84291009
_cell_length_c   11.92796949
_cell_angle_alpha   99.27006448
_cell_angle_beta   99.27006444
_cell_angle_gamma   90.00000002
_symmetry_Int_Tables_number   1
_chemical_formula_structural   Sm2Ti2S2O5
_chemical_formula_sum   'Sm2 Ti2 S2 O5'
_cell_volume   171.51982005
_cell_formula_units_Z   1
loop_
 _symmetry_equiv_pos_site_id
 _symmetry_equiv_pos_as_xyz
  1  'x, y, z'
loop_
 _atom_site_type_symbol
 _atom_site_label
 _atom_site_symmetry_multiplicity
 _atom_site_fract_x
 _atom_site_fract_y
 _atom_site_fract_z
 _atom_site_occupancy
  Sm  Sm1  1  0.833937  0.833937  0.667875  1.0
  Sm  Sm2  1  0.166063  0.166063  0.332125  1.0
  Ti  Ti3  1  0.421972  0.421972  0.843945  1.0
  Ti  Ti4  1  0.578028  0.578028  0.156055  1.0
  S  S5  1  0.295840  0.295840  0.591680  1.0
  S  S6  1  0.704160  0.704160  0.408320  1.0
  O  O7  1  0.402320  0.902320  0.804641  1.0
  O  O8  1  0.902320  0.402320  0.804641  1.0
  O  O9  1  0.597680  0.097680  0.195359  1.0
  O  O10  1  0.097680  0.597680  0.195359  1.0
  O  O11  1  0.500000  0.500000  0.000000  1.0
