# generated using pymatgen
data_ThCl4
_symmetry_space_group_name_H-M   'P 1'
_cell_length_a   6.55511289
_cell_length_b   6.55501629
_cell_length_c   7.97720340
_cell_angle_alpha   114.25709087
_cell_angle_beta   114.25801226
_cell_angle_gamma   89.99965821
_symmetry_Int_Tables_number   1
_chemical_formula_structural   ThCl4
_chemical_formula_sum   'Th2 Cl8'
_cell_volume   278.97985694
_cell_formula_units_Z   2
loop_
 _symmetry_equiv_pos_site_id
 _symmetry_equiv_pos_as_xyz
  1  'x, y, z'
loop_
 _atom_site_type_symbol
 _atom_site_label
 _atom_site_symmetry_multiplicity
 _atom_site_fract_x
 _atom_site_fract_y
 _atom_site_fract_z
 _atom_site_occupancy
  Th  Th1  1  0.125013  0.374991  0.250003  1.0
  Th  Th2  1  0.874987  0.625009  0.749997  1.0
  Cl  Cl3  1  0.463755  0.330735  0.593153  1.0
  Cl  Cl4  1  0.737586  0.036261  0.906829  1.0
  Cl  Cl5  1  0.830745  0.629413  0.093169  1.0
  Cl  Cl6  1  0.262414  0.963739  0.093171  1.0
  Cl  Cl7  1  0.169255  0.370587  0.906831  1.0
  Cl  Cl8  1  0.536245  0.669265  0.406847  1.0
  Cl  Cl9  1  0.870595  0.237582  0.406843  1.0
  Cl  Cl10  1  0.129405  0.762418  0.593157  1.0
