# generated using pymatgen
data_YMgPd
_symmetry_space_group_name_H-M   'P 1'
_cell_length_a   7.47137939
_cell_length_b   7.47137938
_cell_length_c   4.09223170
_cell_angle_alpha   90.00000000
_cell_angle_beta   90.00000000
_cell_angle_gamma   119.99999998
_symmetry_Int_Tables_number   1
_chemical_formula_structural   YMgPd
_chemical_formula_sum   'Y3 Mg3 Pd3'
_cell_volume   197.83012553
_cell_formula_units_Z   3
loop_
 _symmetry_equiv_pos_site_id
 _symmetry_equiv_pos_as_xyz
  1  'x, y, z'
loop_
 _atom_site_type_symbol
 _atom_site_label
 _atom_site_symmetry_multiplicity
 _atom_site_fract_x
 _atom_site_fract_y
 _atom_site_fract_z
 _atom_site_occupancy
  Y  Y1  1  0.411730  0.411730  0.500000  1.0
  Y  Y2  1  0.000000  0.588270  0.500000  1.0
  Y  Y3  1  0.588270  0.000000  0.500000  1.0
  Mg  Mg4  1  0.755208  0.755208  0.000000  1.0
  Mg  Mg5  1  0.244792  0.000000  0.000000  1.0
  Mg  Mg6  1  0.000000  0.244792  0.000000  1.0
  Pd  Pd7  1  0.666667  0.333333  0.000000  1.0
  Pd  Pd8  1  0.333333  0.666667  0.000000  1.0
  Pd  Pd9  1  0.000000  0.000000  0.500000  1.0
