# generated using pymatgen
data_Na2Zr(CuS2)2
_symmetry_space_group_name_H-M   'P 1'
_cell_length_a   3.74046240
_cell_length_b   7.08947679
_cell_length_c   7.12221666
_cell_angle_alpha   111.50330377
_cell_angle_beta   105.22386994
_cell_angle_gamma   90.00000100
_symmetry_Int_Tables_number   1
_chemical_formula_structural   Na2Zr(CuS2)2
_chemical_formula_sum   'Na2 Zr1 Cu2 S4'
_cell_volume   168.57669683
_cell_formula_units_Z   1
loop_
 _symmetry_equiv_pos_site_id
 _symmetry_equiv_pos_as_xyz
  1  'x, y, z'
loop_
 _atom_site_type_symbol
 _atom_site_label
 _atom_site_symmetry_multiplicity
 _atom_site_fract_x
 _atom_site_fract_y
 _atom_site_fract_z
 _atom_site_occupancy
  Na  Na1  1  0.138525  0.559594  0.277050  1.0
  Na  Na2  1  0.861475  0.440406  0.722950  1.0
  Zr  Zr3  1  0.000000  0.000000  0.000000  1.0
  Cu  Cu4  1  0.678749  0.986381  0.357498  1.0
  Cu  Cu5  1  0.321251  0.013619  0.642502  1.0
  S  S6  1  0.204194  0.201159  0.408389  1.0
  S  S7  1  0.795806  0.798841  0.591611  1.0
  S  S8  1  0.509880  0.751218  0.019760  1.0
  S  S9  1  0.490120  0.248782  0.980240  1.0
