# generated using pymatgen
data_Ce2Cu(NO)2
_symmetry_space_group_name_H-M   'P 1'
_cell_length_a   3.92795699
_cell_length_b   3.92795683
_cell_length_c   6.63658621
_cell_angle_alpha   107.21343734
_cell_angle_beta   107.21343532
_cell_angle_gamma   89.99999682
_symmetry_Int_Tables_number   1
_chemical_formula_structural   Ce2Cu(NO)2
_chemical_formula_sum   'Ce2 Cu1 N2 O2'
_cell_volume   92.99620975
_cell_formula_units_Z   1
loop_
 _symmetry_equiv_pos_site_id
 _symmetry_equiv_pos_as_xyz
  1  'x, y, z'
loop_
 _atom_site_type_symbol
 _atom_site_label
 _atom_site_symmetry_multiplicity
 _atom_site_fract_x
 _atom_site_fract_y
 _atom_site_fract_z
 _atom_site_occupancy
  Ce  Ce1  1  0.651104  0.651104  0.302209  1.0
  Ce  Ce2  1  0.348896  0.348896  0.697791  1.0
  Cu  Cu3  1  0.000000  0.000000  0.000000  1.0
  N  N4  1  0.750000  0.250000  0.500000  1.0
  N  N5  1  0.250000  0.750000  0.500000  1.0
  O  O6  1  0.500000  0.000000  0.000000  1.0
  O  O7  1  0.000000  0.500000  0.000000  1.0
