# generated using pymatgen
data_Ca(GePd)2
_symmetry_space_group_name_H-M   'P 1'
_cell_length_a   4.36690996
_cell_length_b   4.36690997
_cell_length_c   5.94213919
_cell_angle_alpha   111.55860305
_cell_angle_beta   111.55860303
_cell_angle_gamma   90.00000005
_symmetry_Int_Tables_number   1
_chemical_formula_structural   Ca(GePd)2
_chemical_formula_sum   'Ca1 Ge2 Pd2'
_cell_volume   96.81439848
_cell_formula_units_Z   1
loop_
 _symmetry_equiv_pos_site_id
 _symmetry_equiv_pos_as_xyz
  1  'x, y, z'
loop_
 _atom_site_type_symbol
 _atom_site_label
 _atom_site_symmetry_multiplicity
 _atom_site_fract_x
 _atom_site_fract_y
 _atom_site_fract_z
 _atom_site_occupancy
  Ca  Ca1  1  0.000000  0.000000  0.000000  1.0
  Ge  Ge2  1  0.375416  0.375416  0.750833  1.0
  Ge  Ge3  1  0.624584  0.624584  0.249167  1.0
  Pd  Pd4  1  0.250000  0.750000  0.500000  1.0
  Pd  Pd5  1  0.750000  0.250000  0.500000  1.0
