# generated using pymatgen
data_Mg3Ge
_symmetry_space_group_name_H-M   'P 1'
_cell_length_a   12.04235370
_cell_length_b   12.04235346
_cell_length_c   4.25265151
_cell_angle_alpha   90.00000000
_cell_angle_beta   90.00000000
_cell_angle_gamma   120.00000064
_symmetry_Int_Tables_number   1
_chemical_formula_structural   Mg3Ge
_chemical_formula_sum   'Mg18 Ge6'
_cell_volume   534.08843407
_cell_formula_units_Z   6
loop_
 _symmetry_equiv_pos_site_id
 _symmetry_equiv_pos_as_xyz
  1  'x, y, z'
loop_
 _atom_site_type_symbol
 _atom_site_label
 _atom_site_symmetry_multiplicity
 _atom_site_fract_x
 _atom_site_fract_y
 _atom_site_fract_z
 _atom_site_occupancy
  Mg  Mg1  1  0.553323  0.819177  0.250145  1.0
  Mg  Mg2  1  0.265854  0.446677  0.250145  1.0
  Mg  Mg3  1  0.180823  0.734146  0.250145  1.0
  Mg  Mg4  1  0.446677  0.180823  0.749855  1.0
  Mg  Mg5  1  0.734146  0.553323  0.749855  1.0
  Mg  Mg6  1  0.819177  0.265854  0.749855  1.0
  Mg  Mg7  1  0.219976  0.152524  0.250138  1.0
  Mg  Mg8  1  0.932548  0.780024  0.250138  1.0
  Mg  Mg9  1  0.847476  0.067452  0.250138  1.0
  Mg  Mg10  1  0.780024  0.847476  0.749862  1.0
  Mg  Mg11  1  0.067452  0.219976  0.749862  1.0
  Mg  Mg12  1  0.152524  0.932548  0.749862  1.0
  Mg  Mg13  1  0.886660  0.485883  0.250137  1.0
  Mg  Mg14  1  0.599223  0.113340  0.250137  1.0
  Mg  Mg15  1  0.514117  0.400777  0.250137  1.0
  Mg  Mg16  1  0.113340  0.514117  0.749863  1.0
  Mg  Mg17  1  0.400777  0.886660  0.749863  1.0
  Mg  Mg18  1  0.485883  0.599223  0.749863  1.0
  Ge  Ge19  1  0.666674  0.666652  0.249605  1.0
  Ge  Ge20  1  0.999978  0.333326  0.249605  1.0
  Ge  Ge21  1  0.333348  0.000022  0.249605  1.0
  Ge  Ge22  1  0.333326  0.333348  0.750395  1.0
  Ge  Ge23  1  0.000022  0.666674  0.750395  1.0
  Ge  Ge24  1  0.666652  0.999978  0.750395  1.0
