# generated using pymatgen
data_Zr5Te4
_symmetry_space_group_name_H-M   'P 1'
_cell_length_a   3.86742459
_cell_length_b   7.93749131
_cell_length_c   7.93749130
_cell_angle_alpha   86.59752558
_cell_angle_beta   75.89985324
_cell_angle_gamma   75.89985326
_symmetry_Int_Tables_number   1
_chemical_formula_structural   Zr5Te4
_chemical_formula_sum   'Zr5 Te4'
_cell_volume   229.20108928
_cell_formula_units_Z   1
loop_
 _symmetry_equiv_pos_site_id
 _symmetry_equiv_pos_as_xyz
  1  'x, y, z'
loop_
 _atom_site_type_symbol
 _atom_site_label
 _atom_site_symmetry_multiplicity
 _atom_site_fract_x
 _atom_site_fract_y
 _atom_site_fract_z
 _atom_site_occupancy
  Zr  Zr1  1  0.000000  0.000000  0.000000  1.0
  Zr  Zr2  1  0.629868  0.679580  0.060684  1.0
  Zr  Zr3  1  0.370132  0.320420  0.939316  1.0
  Zr  Zr4  1  0.309448  0.060684  0.320420  1.0
  Zr  Zr5  1  0.690552  0.939316  0.679580  1.0
  Te  Te6  1  0.719194  0.334437  0.227174  1.0
  Te  Te7  1  0.280806  0.665563  0.772826  1.0
  Te  Te8  1  0.053632  0.227174  0.665563  1.0
  Te  Te9  1  0.946368  0.772826  0.334437  1.0
