# generated using pymatgen
data_LiFe2O3
_symmetry_space_group_name_H-M   'P 1'
_cell_length_a   3.03070364
_cell_length_b   3.03517413
_cell_length_c   7.45017778
_cell_angle_alpha   89.57171165
_cell_angle_beta   90.00000000
_cell_angle_gamma   119.95127808
_symmetry_Int_Tables_number   1
_chemical_formula_structural   LiFe2O3
_chemical_formula_sum   'Li1 Fe2 O3'
_cell_volume   59.37740283
_cell_formula_units_Z   1
loop_
 _symmetry_equiv_pos_site_id
 _symmetry_equiv_pos_as_xyz
  1  'x, y, z'
loop_
 _atom_site_type_symbol
 _atom_site_label
 _atom_site_symmetry_multiplicity
 _atom_site_fract_x
 _atom_site_fract_y
 _atom_site_fract_z
 _atom_site_occupancy
  Li  Li1  1  0.998367  0.000000  0.500000  1.0
  Fe  Fe2  1  0.328068  0.663096  0.179298  1.0
  Fe  Fe3  1  0.664973  0.336904  0.820702  1.0
  O  O4  1  0.340254  0.660025  0.679162  1.0
  O  O5  1  0.988090  0.000000  0.000000  1.0
  O  O6  1  0.680228  0.339975  0.320838  1.0
