# generated using pymatgen
data_C
_symmetry_space_group_name_H-M   'P 1'
_cell_length_a   4.27452407
_cell_length_b   4.93472515
_cell_length_c   8.02832801
_cell_angle_alpha   90.00000000
_cell_angle_beta   90.00000000
_cell_angle_gamma   90.00000000
_symmetry_Int_Tables_number   1
_chemical_formula_structural   C
_chemical_formula_sum   C16
_cell_volume   169.34635121
_cell_formula_units_Z   16
loop_
 _symmetry_equiv_pos_site_id
 _symmetry_equiv_pos_as_xyz
  1  'x, y, z'
loop_
 _atom_site_type_symbol
 _atom_site_label
 _atom_site_symmetry_multiplicity
 _atom_site_fract_x
 _atom_site_fract_y
 _atom_site_fract_z
 _atom_site_occupancy
  C  C1  1  0.166604  0.624999  0.760053  1.0
  C  C2  1  0.166553  0.375010  0.239936  1.0
  C  C3  1  0.333396  0.124999  0.239947  1.0
  C  C4  1  0.833396  0.375001  0.239947  1.0
  C  C5  1  0.833396  0.124999  0.760053  1.0
  C  C6  1  0.666553  0.124990  0.239936  1.0
  C  C7  1  0.666604  0.624999  0.239947  1.0
  C  C8  1  0.666553  0.375010  0.760064  1.0
  C  C9  1  0.333447  0.624990  0.239936  1.0
  C  C10  1  0.833447  0.875010  0.239936  1.0
  C  C11  1  0.166604  0.875001  0.239947  1.0
  C  C12  1  0.666604  0.875001  0.760053  1.0
  C  C13  1  0.333396  0.375001  0.760053  1.0
  C  C14  1  0.166553  0.124990  0.760064  1.0
  C  C15  1  0.333447  0.875010  0.760064  1.0
  C  C16  1  0.833447  0.624990  0.760064  1.0
