# generated using pymatgen
data_K4Br2O
_symmetry_space_group_name_H-M   'P 1'
_cell_length_a   5.23533330
_cell_length_b   5.23533330
_cell_length_c   9.16094532
_cell_angle_alpha   106.60320542
_cell_angle_beta   106.60320543
_cell_angle_gamma   89.99999999
_symmetry_Int_Tables_number   1
_chemical_formula_structural   K4Br2O
_chemical_formula_sum   'K4 Br2 O1'
_cell_volume   229.67548173
_cell_formula_units_Z   1
loop_
 _symmetry_equiv_pos_site_id
 _symmetry_equiv_pos_as_xyz
  1  'x, y, z'
loop_
 _atom_site_type_symbol
 _atom_site_label
 _atom_site_symmetry_multiplicity
 _atom_site_fract_x
 _atom_site_fract_y
 _atom_site_fract_z
 _atom_site_occupancy
  K  K1  1  0.154587  0.154587  0.309174  1.0
  K  K2  1  0.000000  0.500000  0.000000  1.0
  K  K3  1  0.845413  0.845413  0.690826  1.0
  K  K4  1  0.500000  0.000000  0.000000  1.0
  Br  Br5  1  0.354372  0.354372  0.708744  1.0
  Br  Br6  1  0.645628  0.645628  0.291256  1.0
  O  O7  1  0.000000  0.000000  0.000000  1.0
