# generated using pymatgen
data_WO3
_symmetry_space_group_name_H-M   'P 1'
_cell_length_a   7.68022169
_cell_length_b   7.71889394
_cell_length_c   7.75095858
_cell_angle_alpha   89.81687983
_cell_angle_beta   89.95806359
_cell_angle_gamma   89.94575777
_symmetry_Int_Tables_number   1
_chemical_formula_structural   WO3
_chemical_formula_sum   'W8 O24'
_cell_volume   459.49598164
_cell_formula_units_Z   8
loop_
 _symmetry_equiv_pos_site_id
 _symmetry_equiv_pos_as_xyz
  1  'x, y, z'
loop_
 _atom_site_type_symbol
 _atom_site_label
 _atom_site_symmetry_multiplicity
 _atom_site_fract_x
 _atom_site_fract_y
 _atom_site_fract_z
 _atom_site_occupancy
  W  W1  1  0.753064  0.511583  0.734820  1.0
  W  W2  1  0.246936  0.488417  0.265180  1.0
  W  W3  1  0.755143  0.011098  0.765348  1.0
  W  W4  1  0.244857  0.988902  0.234652  1.0
  W  W5  1  0.746945  0.511284  0.234570  1.0
  W  W6  1  0.253055  0.488716  0.765430  1.0
  W  W7  1  0.744847  0.010812  0.265587  1.0
  W  W8  1  0.255153  0.989188  0.734413  1.0
  O  O9  1  0.767428  0.999003  0.503274  1.0
  O  O10  1  0.232572  0.000997  0.496726  1.0
  O  O11  1  0.766317  0.499083  0.996688  1.0
  O  O12  1  0.233683  0.500917  0.003312  1.0
  O  O13  1  0.733687  0.506753  0.496704  1.0
  O  O14  1  0.266313  0.493247  0.503296  1.0
  O  O15  1  0.732578  0.006660  0.003258  1.0
  O  O16  1  0.267422  0.993340  0.996742  1.0
  O  O17  1  0.001124  0.987506  0.767690  1.0
  O  O18  1  0.998876  0.012494  0.232310  1.0
  O  O19  1  0.500968  0.487090  0.766411  1.0
  O  O20  1  0.499032  0.512910  0.233589  1.0
  O  O21  1  0.000994  0.513129  0.733557  1.0
  O  O22  1  0.999006  0.486871  0.266443  1.0
  O  O23  1  0.501102  0.012700  0.732350  1.0
  O  O24  1  0.498898  0.987300  0.267650  1.0
  O  O25  1  0.262992  0.746642  0.745489  1.0
  O  O26  1  0.737008  0.253358  0.254511  1.0
  O  O27  1  0.237174  0.246590  0.754527  1.0
  O  O28  1  0.762826  0.753410  0.245473  1.0
  O  O29  1  0.236999  0.746593  0.253124  1.0
  O  O30  1  0.763001  0.253407  0.746876  1.0
  O  O31  1  0.262857  0.246545  0.246919  1.0
  O  O32  1  0.737143  0.753455  0.753081  1.0
