# generated using pymatgen
data_Ti2AlRe
_symmetry_space_group_name_H-M   'P 1'
_cell_length_a   4.44730815
_cell_length_b   4.44729288
_cell_length_c   4.44727462
_cell_angle_alpha   60.00001862
_cell_angle_beta   59.99999232
_cell_angle_gamma   60.00019650
_symmetry_Int_Tables_number   1
_chemical_formula_structural   Ti2AlRe
_chemical_formula_sum   'Ti2 Al1 Re1'
_cell_volume   62.19745071
_cell_formula_units_Z   1
loop_
 _symmetry_equiv_pos_site_id
 _symmetry_equiv_pos_as_xyz
  1  'x, y, z'
loop_
 _atom_site_type_symbol
 _atom_site_label
 _atom_site_symmetry_multiplicity
 _atom_site_fract_x
 _atom_site_fract_y
 _atom_site_fract_z
 _atom_site_occupancy
  Ti  Ti1  1  0.999999  0.999999  0.000002  1.0
  Ti  Ti2  1  0.500000  0.500001  0.499999  1.0
  Al  Al3  1  0.249999  0.249999  0.249999  1.0
  Re  Re4  1  0.750001  0.750000  0.749999  1.0
