# generated using pymatgen
data_LiZrIr2
_symmetry_space_group_name_H-M   'P 1'
_cell_length_a   4.45069595
_cell_length_b   4.45069595
_cell_length_c   4.45069595
_cell_angle_alpha   60.22240164
_cell_angle_beta   60.22240164
_cell_angle_gamma   60.22240164
_symmetry_Int_Tables_number   1
_chemical_formula_structural   LiZrIr2
_chemical_formula_sum   'Li1 Zr1 Ir2'
_cell_volume   62.65418572
_cell_formula_units_Z   1
loop_
 _symmetry_equiv_pos_site_id
 _symmetry_equiv_pos_as_xyz
  1  'x, y, z'
loop_
 _atom_site_type_symbol
 _atom_site_label
 _atom_site_symmetry_multiplicity
 _atom_site_fract_x
 _atom_site_fract_y
 _atom_site_fract_z
 _atom_site_occupancy
  Li  Li1  1  0.249999  0.249999  0.249999  1.0
  Zr  Zr2  1  0.750003  0.750003  0.750003  1.0
  Ir  Ir3  1  0.000123  0.000123  0.000123  1.0
  Ir  Ir4  1  0.499875  0.499875  0.499875  1.0
