# generated using pymatgen
data_Er2OsPd
_symmetry_space_group_name_H-M   'P 1'
_cell_length_a   4.83833430
_cell_length_b   4.83832924
_cell_length_c   4.83835885
_cell_angle_alpha   59.99967894
_cell_angle_beta   59.99979376
_cell_angle_gamma   60.00024071
_symmetry_Int_Tables_number   1
_chemical_formula_structural   Er2OsPd
_chemical_formula_sum   'Er2 Os1 Pd1'
_cell_volume   80.08910263
_cell_formula_units_Z   1
loop_
 _symmetry_equiv_pos_site_id
 _symmetry_equiv_pos_as_xyz
  1  'x, y, z'
loop_
 _atom_site_type_symbol
 _atom_site_label
 _atom_site_symmetry_multiplicity
 _atom_site_fract_x
 _atom_site_fract_y
 _atom_site_fract_z
 _atom_site_occupancy
  Er  Er1  1  0.000000  0.000000  0.000000  1.0
  Er  Er2  1  0.500001  0.499998  0.500001  1.0
  Os  Os3  1  0.250001  0.250000  0.250001  1.0
  Pd  Pd4  1  0.749998  0.750002  0.749999  1.0
