# generated using pymatgen
data_ThCdAg2
_symmetry_space_group_name_H-M   'P 1'
_cell_length_a   5.07482069
_cell_length_b   5.07481719
_cell_length_c   5.07481806
_cell_angle_alpha   59.99993584
_cell_angle_beta   60.00002259
_cell_angle_gamma   59.99999954
_symmetry_Int_Tables_number   1
_chemical_formula_structural   ThCdAg2
_chemical_formula_sum   'Th1 Cd1 Ag2'
_cell_volume   92.41584633
_cell_formula_units_Z   1
loop_
 _symmetry_equiv_pos_site_id
 _symmetry_equiv_pos_as_xyz
  1  'x, y, z'
loop_
 _atom_site_type_symbol
 _atom_site_label
 _atom_site_symmetry_multiplicity
 _atom_site_fract_x
 _atom_site_fract_y
 _atom_site_fract_z
 _atom_site_occupancy
  Th  Th1  1  0.750001  0.750000  0.749999  1.0
  Cd  Cd2  1  0.250000  0.250000  0.250001  1.0
  Ag  Ag3  1  0.000000  0.000000  0.000000  1.0
  Ag  Ag4  1  0.499999  0.500000  0.500000  1.0
