# generated using pymatgen
data_MnVO4
_symmetry_space_group_name_H-M   'P 1'
_cell_length_a   5.02889322
_cell_length_b   5.02889322
_cell_length_c   6.45702741
_cell_angle_alpha   90.00000000
_cell_angle_beta   90.00000000
_cell_angle_gamma   68.71405779
_symmetry_Int_Tables_number   1
_chemical_formula_structural   MnVO4
_chemical_formula_sum   'Mn2 V2 O8'
_cell_volume   152.15666973
_cell_formula_units_Z   2
loop_
 _symmetry_equiv_pos_site_id
 _symmetry_equiv_pos_as_xyz
  1  'x, y, z'
loop_
 _atom_site_type_symbol
 _atom_site_label
 _atom_site_symmetry_multiplicity
 _atom_site_fract_x
 _atom_site_fract_y
 _atom_site_fract_z
 _atom_site_occupancy
  Mn  Mn1  1  0.000000  0.000000  0.500000  1.0
  Mn  Mn2  1  0.000000  0.000000  0.000000  1.0
  V  V3  1  0.648574  0.648573  0.750000  1.0
  V  V4  1  0.351426  0.351426  0.250001  1.0
  O  O5  1  0.227632  0.227629  0.462939  1.0
  O  O6  1  0.731340  0.214705  0.250001  1.0
  O  O7  1  0.214704  0.731342  0.250001  1.0
  O  O8  1  0.268659  0.785296  0.750000  1.0
  O  O9  1  0.227632  0.227629  0.037062  1.0
  O  O10  1  0.772370  0.772369  0.962939  1.0
  O  O11  1  0.785295  0.268659  0.750000  1.0
  O  O12  1  0.772370  0.772369  0.537062  1.0
