# generated using pymatgen
data_AlSb
_symmetry_space_group_name_H-M   'P 1'
_cell_length_a   4.40064476
_cell_length_b   4.40020260
_cell_length_c   7.22063052
_cell_angle_alpha   90.00000000
_cell_angle_beta   90.00000000
_cell_angle_gamma   120.00332408
_symmetry_Int_Tables_number   1
_chemical_formula_structural   AlSb
_chemical_formula_sum   'Al2 Sb2'
_cell_volume   121.08216885
_cell_formula_units_Z   2
loop_
 _symmetry_equiv_pos_site_id
 _symmetry_equiv_pos_as_xyz
  1  'x, y, z'
loop_
 _atom_site_type_symbol
 _atom_site_label
 _atom_site_symmetry_multiplicity
 _atom_site_fract_x
 _atom_site_fract_y
 _atom_site_fract_z
 _atom_site_occupancy
  Al  Al1  1  0.666681  0.333361  0.499921  1.0
  Al  Al2  1  0.333319  0.666639  0.999921  1.0
  Sb  Sb3  1  0.666683  0.333365  0.875179  1.0
  Sb  Sb4  1  0.333317  0.666635  0.375179  1.0
