# generated using pymatgen
data_CsVN2
_symmetry_space_group_name_H-M   'P 1'
_cell_length_a   5.94234183
_cell_length_b   5.94168845
_cell_length_c   8.40466249
_cell_angle_alpha   89.99999735
_cell_angle_beta   135.00629934
_cell_angle_gamma   119.99636450
_symmetry_Int_Tables_number   1
_chemical_formula_structural   CsVN2
_chemical_formula_sum   'Cs2 V2 N4'
_cell_volume   148.35768352
_cell_formula_units_Z   2
loop_
 _symmetry_equiv_pos_site_id
 _symmetry_equiv_pos_as_xyz
  1  'x, y, z'
loop_
 _atom_site_type_symbol
 _atom_site_label
 _atom_site_symmetry_multiplicity
 _atom_site_fract_x
 _atom_site_fract_y
 _atom_site_fract_z
 _atom_site_occupancy
  Cs  Cs1  1  0.000000  0.500000  0.750000  1.0
  Cs  Cs2  1  0.000000  0.000000  0.500000  1.0
  V  V3  1  0.000000  0.500000  0.250000  1.0
  V  V4  1  0.000000  0.000000  0.000000  1.0
  N  N5  1  0.500000  0.249457  0.125000  1.0
  N  N6  1  0.500000  0.750543  0.625000  1.0
  N  N7  1  0.001085  0.250543  0.125543  1.0
  N  N8  1  0.998915  0.749457  0.124457  1.0
