# generated using pymatgen
data_Y3Si6N11
_symmetry_space_group_name_H-M   'P 1'
_cell_length_a   9.97061900
_cell_length_b   9.97061900
_cell_length_c   4.89119200
_cell_angle_alpha   90.00000000
_cell_angle_beta   90.00000000
_cell_angle_gamma   90.00000000
_symmetry_Int_Tables_number   1
_chemical_formula_structural   Y3Si6N11
_chemical_formula_sum   'Y6 Si12 N22'
_cell_volume   486.24926005
_cell_formula_units_Z   2
loop_
 _symmetry_equiv_pos_site_id
 _symmetry_equiv_pos_as_xyz
  1  'x, y, z'
loop_
 _atom_site_type_symbol
 _atom_site_label
 _atom_site_symmetry_multiplicity
 _atom_site_fract_x
 _atom_site_fract_y
 _atom_site_fract_z
 _atom_site_occupancy
  Y  Y1  1  0.817077  0.317077  0.985054  1.0
  Y  Y2  1  0.182923  0.682923  0.985054  1.0
  Y  Y3  1  0.317077  0.182923  0.985054  1.0
  Y  Y4  1  0.682923  0.817077  0.985054  1.0
  Y  Y5  1  0.500000  0.500000  0.974294  1.0
  Y  Y6  1  0.000000  0.000000  0.974294  1.0
  Si  Si7  1  0.292199  0.419582  0.532591  1.0
  Si  Si8  1  0.707801  0.580418  0.532591  1.0
  Si  Si9  1  0.792199  0.080418  0.532591  1.0
  Si  Si10  1  0.207801  0.919582  0.532591  1.0
  Si  Si11  1  0.580418  0.292199  0.532591  1.0
  Si  Si12  1  0.419582  0.707801  0.532591  1.0
  Si  Si13  1  0.919582  0.792199  0.532591  1.0
  Si  Si14  1  0.080418  0.207801  0.532591  1.0
  Si  Si15  1  0.380809  0.880809  0.045229  1.0
  Si  Si16  1  0.619191  0.119191  0.045229  1.0
  Si  Si17  1  0.880809  0.619191  0.045229  1.0
  Si  Si18  1  0.119191  0.380809  0.045229  1.0
  N  N19  1  0.421331  0.318672  0.654820  1.0
  N  N20  1  0.578669  0.681328  0.654820  1.0
  N  N21  1  0.921331  0.181328  0.654820  1.0
  N  N22  1  0.078669  0.818672  0.654820  1.0
  N  N23  1  0.681328  0.421331  0.654820  1.0
  N  N24  1  0.318672  0.578669  0.654820  1.0
  N  N25  1  0.818672  0.921331  0.654820  1.0
  N  N26  1  0.181328  0.078669  0.654820  1.0
  N  N27  1  0.276794  0.420365  0.178631  1.0
  N  N28  1  0.723206  0.579635  0.178631  1.0
  N  N29  1  0.776794  0.079635  0.178631  1.0
  N  N30  1  0.223206  0.920365  0.178631  1.0
  N  N31  1  0.579635  0.276794  0.178631  1.0
  N  N32  1  0.420365  0.723206  0.178631  1.0
  N  N33  1  0.920365  0.776794  0.178631  1.0
  N  N34  1  0.079635  0.223206  0.178631  1.0
  N  N35  1  0.346611  0.846611  0.697831  1.0
  N  N36  1  0.653389  0.153389  0.697831  1.0
  N  N37  1  0.846611  0.653389  0.697831  1.0
  N  N38  1  0.153389  0.346611  0.697831  1.0
  N  N39  1  0.000000  0.500000  0.073850  1.0
  N  N40  1  0.500000  0.000000  0.073850  1.0
