# generated using pymatgen
data_Li(BH)5
_symmetry_space_group_name_H-M   'P 1'
_cell_length_a   7.08784266
_cell_length_b   7.08784266
_cell_length_c   14.98321426
_cell_angle_alpha   90.00000000
_cell_angle_beta   90.00000000
_cell_angle_gamma   120.00000079
_symmetry_Int_Tables_number   1
_chemical_formula_structural   Li(BH)5
_chemical_formula_sum   'Li6 B30 H30'
_cell_volume   651.87414290
_cell_formula_units_Z   6
loop_
 _symmetry_equiv_pos_site_id
 _symmetry_equiv_pos_as_xyz
  1  'x, y, z'
loop_
 _atom_site_type_symbol
 _atom_site_label
 _atom_site_symmetry_multiplicity
 _atom_site_fract_x
 _atom_site_fract_y
 _atom_site_fract_z
 _atom_site_occupancy
  Li  Li1  1  0.500000  0.500000  0.759139  1.0
  Li  Li2  1  0.000000  0.500000  0.425806  1.0
  Li  Li3  1  0.500000  0.000000  0.092473  1.0
  Li  Li4  1  0.000000  0.500000  0.907526  1.0
  Li  Li5  1  0.500000  0.500000  0.240860  1.0
  Li  Li6  1  0.500000  0.000000  0.574193  1.0
  B  B7  1  0.302432  0.651217  0.666666  1.0
  B  B8  1  0.348785  0.697568  0.333333  1.0
  B  B9  1  0.348783  0.651215  0.000000  1.0
  B  B10  1  0.697568  0.348783  0.666666  1.0
  B  B11  1  0.651215  0.302432  0.333333  1.0
  B  B12  1  0.651217  0.348785  0.000000  1.0
  B  B13  1  0.123884  0.393685  0.699524  1.0
  B  B14  1  0.269801  0.876116  0.366191  1.0
  B  B15  1  0.606315  0.730199  0.032858  1.0
  B  B16  1  0.876116  0.606315  0.699524  1.0
  B  B17  1  0.730199  0.123884  0.366191  1.0
  B  B18  1  0.393685  0.269801  0.032858  1.0
  B  B19  1  0.730199  0.606322  0.967140  1.0
  B  B20  1  0.393678  0.123877  0.300474  1.0
  B  B21  1  0.876123  0.269801  0.633807  1.0
  B  B22  1  0.269801  0.393678  0.967140  1.0
  B  B23  1  0.606322  0.876123  0.300474  1.0
  B  B24  1  0.123877  0.730199  0.633807  1.0
  B  B25  1  0.120577  0.630290  0.746651  1.0
  B  B26  1  0.509713  0.879423  0.413318  1.0
  B  B27  1  0.369710  0.490287  0.079985  1.0
  B  B28  1  0.879423  0.369710  0.746651  1.0
  B  B29  1  0.490287  0.120577  0.413318  1.0
  B  B30  1  0.630290  0.509713  0.079985  1.0
  B  B31  1  0.490289  0.369709  0.920014  1.0
  B  B32  1  0.630291  0.120580  0.253348  1.0
  B  B33  1  0.879420  0.509711  0.586681  1.0
  B  B34  1  0.509711  0.630291  0.920014  1.0
  B  B35  1  0.369709  0.879420  0.253348  1.0
  B  B36  1  0.120580  0.490289  0.586681  1.0
  H  H37  1  0.499039  0.749527  0.666666  1.0
  H  H38  1  0.250488  0.500961  0.333333  1.0
  H  H39  1  0.250473  0.749512  0.000000  1.0
  H  H40  1  0.500961  0.250473  0.666666  1.0
  H  H41  1  0.749512  0.499039  0.333333  1.0
  H  H42  1  0.749527  0.250488  0.000000  1.0
  H  H43  1  0.181622  0.272484  0.729097  1.0
  H  H44  1  0.090862  0.818378  0.395764  1.0
  H  H45  1  0.727516  0.909138  0.062431  1.0
  H  H46  1  0.818378  0.727516  0.729097  1.0
  H  H47  1  0.909138  0.181622  0.395764  1.0
  H  H48  1  0.272484  0.090862  0.062431  1.0
  H  H49  1  0.909134  0.727527  0.937568  1.0
  H  H50  1  0.272473  0.181607  0.270902  1.0
  H  H51  1  0.818393  0.090866  0.604235  1.0
  H  H52  1  0.090866  0.272473  0.937568  1.0
  H  H53  1  0.727527  0.818393  0.270902  1.0
  H  H54  1  0.181607  0.909134  0.604235  1.0
  H  H55  1  0.192356  0.729800  0.815031  1.0
  H  H56  1  0.537443  0.807644  0.481698  1.0
  H  H57  1  0.270200  0.462557  0.148365  1.0
  H  H58  1  0.807644  0.270200  0.815031  1.0
  H  H59  1  0.462557  0.192356  0.481698  1.0
  H  H60  1  0.729800  0.537443  0.148365  1.0
  H  H61  1  0.462566  0.270203  0.851633  1.0
  H  H62  1  0.729797  0.192363  0.184967  1.0
  H  H63  1  0.807637  0.537434  0.518300  1.0
  H  H64  1  0.537434  0.729797  0.851633  1.0
  H  H65  1  0.270203  0.807637  0.184967  1.0
  H  H66  1  0.192363  0.462566  0.518300  1.0
