# generated using pymatgen
data_RbMg6Zr
_symmetry_space_group_name_H-M   'P 1'
_cell_length_a   6.83324676
_cell_length_b   9.66151958
_cell_length_c   4.71980004
_cell_angle_alpha   90.00000000
_cell_angle_beta   90.00000000
_cell_angle_gamma   134.98726386
_symmetry_Int_Tables_number   1
_chemical_formula_structural   RbMg6Zr
_chemical_formula_sum   'Rb1 Mg6 Zr1'
_cell_volume   220.38278199
_cell_formula_units_Z   1
loop_
 _symmetry_equiv_pos_site_id
 _symmetry_equiv_pos_as_xyz
  1  'x, y, z'
loop_
 _atom_site_type_symbol
 _atom_site_label
 _atom_site_symmetry_multiplicity
 _atom_site_fract_x
 _atom_site_fract_y
 _atom_site_fract_z
 _atom_site_occupancy
  Rb  Rb1  1  0.232134  0.866067  0.250000  1.0
  Mg  Mg2  1  0.747633  0.365054  0.250000  1.0
  Mg  Mg3  1  0.747633  0.882577  0.250000  1.0
  Mg  Mg4  1  0.258812  0.160918  0.750000  1.0
  Mg  Mg5  1  0.258812  0.597895  0.750000  1.0
  Mg  Mg6  1  0.814893  0.157447  0.750000  1.0
  Mg  Mg7  1  0.684745  0.592373  0.750000  1.0
  Zr  Zr8  1  0.255337  0.377668  0.250000  1.0
