# generated using pymatgen
data_Mg6ZrC
_symmetry_space_group_name_H-M   'P 1'
_cell_length_a   6.35903721
_cell_length_b   6.35903596
_cell_length_c   4.59009333
_cell_angle_alpha   90.00000000
_cell_angle_beta   90.00000000
_cell_angle_gamma   104.64211166
_symmetry_Int_Tables_number   1
_chemical_formula_structural   Mg6ZrC
_chemical_formula_sum   'Mg6 Zr1 C1'
_cell_volume   179.58321780
_cell_formula_units_Z   1
loop_
 _symmetry_equiv_pos_site_id
 _symmetry_equiv_pos_as_xyz
  1  'x, y, z'
loop_
 _atom_site_type_symbol
 _atom_site_label
 _atom_site_symmetry_multiplicity
 _atom_site_fract_x
 _atom_site_fract_y
 _atom_site_fract_z
 _atom_site_occupancy
  Mg  Mg1  1  0.215653  0.892620  0.250000  1.0
  Mg  Mg2  1  0.607380  0.284347  0.250000  1.0
  Mg  Mg3  1  0.703431  0.796569  0.250000  1.0
  Mg  Mg4  1  0.425824  0.621096  0.750000  1.0
  Mg  Mg5  1  0.878904  0.074176  0.750000  1.0
  Mg  Mg6  1  0.910388  0.589612  0.750000  1.0
  Zr  Zr7  1  0.135344  0.364656  0.250000  1.0
  C  C8  1  0.123075  0.376925  0.750000  1.0
