# generated using pymatgen
data_KMg6Zr
_symmetry_space_group_name_H-M   'P 1'
_cell_length_a   6.67701703
_cell_length_b   9.43264616
_cell_length_c   4.70208866
_cell_angle_alpha   90.00000000
_cell_angle_beta   90.00000000
_cell_angle_gamma   134.93885710
_symmetry_Int_Tables_number   1
_chemical_formula_structural   KMg6Zr
_chemical_formula_sum   'K1 Mg6 Zr1'
_cell_volume   209.63066116
_cell_formula_units_Z   1
loop_
 _symmetry_equiv_pos_site_id
 _symmetry_equiv_pos_as_xyz
  1  'x, y, z'
loop_
 _atom_site_type_symbol
 _atom_site_label
 _atom_site_symmetry_multiplicity
 _atom_site_fract_x
 _atom_site_fract_y
 _atom_site_fract_z
 _atom_site_occupancy
  K  K1  1  0.238921  0.869460  0.250000  1.0
  Mg  Mg2  1  0.749331  0.369478  0.250000  1.0
  Mg  Mg3  1  0.749331  0.879852  0.250000  1.0
  Mg  Mg4  1  0.254078  0.151546  0.750000  1.0
  Mg  Mg5  1  0.254078  0.602533  0.750000  1.0
  Mg  Mg6  1  0.800409  0.150206  0.750000  1.0
  Mg  Mg7  1  0.699672  0.599836  0.750000  1.0
  Zr  Zr8  1  0.254178  0.377088  0.250000  1.0
