# generated using pymatgen
data_CsSnSe3
_symmetry_space_group_name_H-M   'P 1'
_cell_length_a   7.22774028
_cell_length_b   7.64469579
_cell_length_c   8.20689690
_cell_angle_alpha   97.41780136
_cell_angle_beta   115.03052869
_cell_angle_gamma   107.84796300
_symmetry_Int_Tables_number   1
_chemical_formula_structural   CsSnSe3
_chemical_formula_sum   'Cs2 Sn2 Se6'
_cell_volume   373.08078829
_cell_formula_units_Z   2
loop_
 _symmetry_equiv_pos_site_id
 _symmetry_equiv_pos_as_xyz
  1  'x, y, z'
loop_
 _atom_site_type_symbol
 _atom_site_label
 _atom_site_symmetry_multiplicity
 _atom_site_fract_x
 _atom_site_fract_y
 _atom_site_fract_z
 _atom_site_occupancy
  Cs  Cs1  1  0.229327  0.191136  0.861839  1.0
  Cs  Cs2  1  0.770673  0.808864  0.138161  1.0
  Sn  Sn3  1  0.221277  0.510665  0.426344  1.0
  Sn  Sn4  1  0.778723  0.489335  0.573656  1.0
  Se  Se5  1  0.660649  0.775333  0.558478  1.0
  Se  Se6  1  0.183402  0.613999  0.120993  1.0
  Se  Se7  1  0.339351  0.224667  0.441522  1.0
  Se  Se8  1  0.224615  0.697980  0.715185  1.0
  Se  Se9  1  0.775385  0.302020  0.284815  1.0
  Se  Se10  1  0.816598  0.386001  0.879007  1.0
