# generated using pymatgen
data_Ce2Re2Si2C
_symmetry_space_group_name_H-M   'P 1'
_cell_length_a   4.10777329
_cell_length_b   5.89323586
_cell_length_c   6.00387833
_cell_angle_alpha   72.25070439
_cell_angle_beta   69.99553845
_cell_angle_gamma   69.60342974
_symmetry_Int_Tables_number   1
_chemical_formula_structural   Ce2Re2Si2C
_chemical_formula_sum   'Ce2 Re2 Si2 C1'
_cell_volume   125.13510127
_cell_formula_units_Z   1
loop_
 _symmetry_equiv_pos_site_id
 _symmetry_equiv_pos_as_xyz
  1  'x, y, z'
loop_
 _atom_site_type_symbol
 _atom_site_label
 _atom_site_symmetry_multiplicity
 _atom_site_fract_x
 _atom_site_fract_y
 _atom_site_fract_z
 _atom_site_occupancy
  Ce  Ce1  1  0.429402  0.842716  0.298480  1.0
  Ce  Ce2  1  0.570598  0.157284  0.701520  1.0
  Re  Re3  1  0.792491  0.321426  0.093592  1.0
  Re  Re4  1  0.207509  0.678574  0.906408  1.0
  Si  Si5  1  0.855721  0.600476  0.688081  1.0
  Si  Si6  1  0.144279  0.399524  0.311919  1.0
  C  C7  1  0.000000  0.000000  0.000000  1.0
