# generated using pymatgen
data_Co(NiSe2)2
_symmetry_space_group_name_H-M   'P 1'
_cell_length_a   3.63475854
_cell_length_b   6.16496891
_cell_length_c   6.18899451
_cell_angle_alpha   117.71407478
_cell_angle_beta   107.07641942
_cell_angle_gamma   90.00000000
_symmetry_Int_Tables_number   1
_chemical_formula_structural   Co(NiSe2)2
_chemical_formula_sum   'Co1 Ni2 Se4'
_cell_volume   115.82328879
_cell_formula_units_Z   1
loop_
 _symmetry_equiv_pos_site_id
 _symmetry_equiv_pos_as_xyz
  1  'x, y, z'
loop_
 _atom_site_type_symbol
 _atom_site_label
 _atom_site_symmetry_multiplicity
 _atom_site_fract_x
 _atom_site_fract_y
 _atom_site_fract_z
 _atom_site_occupancy
  Co  Co1  1  0.000000  0.000000  0.000000  1.0
  Ni  Ni2  1  0.264074  0.289643  0.528147  1.0
  Ni  Ni3  1  0.735926  0.710357  0.471853  1.0
  Se  Se4  1  0.114216  0.451075  0.228432  1.0
  Se  Se5  1  0.885784  0.548925  0.771568  1.0
  Se  Se6  1  0.367260  0.020557  0.734521  1.0
  Se  Se7  1  0.632740  0.979443  0.265479  1.0
