# generated using pymatgen
data_Lu2Fe2Si2C
_symmetry_space_group_name_H-M   'P 1'
_cell_length_a   3.88088757
_cell_length_b   5.56680954
_cell_length_c   5.55301452
_cell_angle_alpha   72.79846672
_cell_angle_beta   69.54695642
_cell_angle_gamma   69.59990026
_symmetry_Int_Tables_number   1
_chemical_formula_structural   Lu2Fe2Si2C
_chemical_formula_sum   'Lu2 Fe2 Si2 C1'
_cell_volume   103.26845758
_cell_formula_units_Z   1
loop_
 _symmetry_equiv_pos_site_id
 _symmetry_equiv_pos_as_xyz
  1  'x, y, z'
loop_
 _atom_site_type_symbol
 _atom_site_label
 _atom_site_symmetry_multiplicity
 _atom_site_fract_x
 _atom_site_fract_y
 _atom_site_fract_z
 _atom_site_occupancy
  Lu  Lu1  1  0.440933  0.826404  0.291729  1.0
  Lu  Lu2  1  0.559067  0.173596  0.708271  1.0
  Fe  Fe3  1  0.796796  0.307027  0.099380  1.0
  Fe  Fe4  1  0.203204  0.692973  0.900620  1.0
  Si  Si5  1  0.842838  0.606353  0.707973  1.0
  Si  Si6  1  0.157162  0.393647  0.292027  1.0
  C  C7  1  0.000000  0.000000  0.000000  1.0
