# generated using pymatgen
data_Y2Cr2C3
_symmetry_space_group_name_H-M   'P 1'
_cell_length_a   3.38368926
_cell_length_b   5.49667721
_cell_length_c   5.58001475
_cell_angle_alpha   104.98471361
_cell_angle_beta   90.00000000
_cell_angle_gamma   107.92634086
_symmetry_Int_Tables_number   1
_chemical_formula_structural   Y2Cr2C3
_chemical_formula_sum   'Y2 Cr2 C3'
_cell_volume   95.02852345
_cell_formula_units_Z   1
loop_
 _symmetry_equiv_pos_site_id
 _symmetry_equiv_pos_as_xyz
  1  'x, y, z'
loop_
 _atom_site_type_symbol
 _atom_site_label
 _atom_site_symmetry_multiplicity
 _atom_site_fract_x
 _atom_site_fract_y
 _atom_site_fract_z
 _atom_site_occupancy
  Y  Y1  1  0.394226  0.788452  0.682357  1.0
  Y  Y2  1  0.605774  0.211548  0.317643  1.0
  Cr  Cr3  1  0.156678  0.313357  0.891122  1.0
  Cr  Cr4  1  0.843322  0.686643  0.108878  1.0
  C  C5  1  0.714044  0.428088  0.771588  1.0
  C  C6  1  0.285956  0.571912  0.228412  1.0
  C  C7  1  0.000000  0.000000  0.000000  1.0
