# generated using pymatgen
data_LaSi2Ag
_symmetry_space_group_name_H-M   'P 1'
_cell_length_a   4.28378411
_cell_length_b   4.36208108
_cell_length_c   9.09501322
_cell_angle_alpha   103.87510229
_cell_angle_beta   90.00000000
_cell_angle_gamma   90.00000000
_symmetry_Int_Tables_number   1
_chemical_formula_structural   LaSi2Ag
_chemical_formula_sum   'La2 Si4 Ag2'
_cell_volume   164.99231181
_cell_formula_units_Z   2
loop_
 _symmetry_equiv_pos_site_id
 _symmetry_equiv_pos_as_xyz
  1  'x, y, z'
loop_
 _atom_site_type_symbol
 _atom_site_label
 _atom_site_symmetry_multiplicity
 _atom_site_fract_x
 _atom_site_fract_y
 _atom_site_fract_z
 _atom_site_occupancy
  La  La1  1  0.250000  0.401909  0.803819  1.0
  La  La2  1  0.750000  0.598091  0.196181  1.0
  Si  Si3  1  0.250000  0.032655  0.065310  1.0
  Si  Si4  1  0.750000  0.967345  0.934690  1.0
  Si  Si5  1  0.250000  0.165516  0.331031  1.0
  Si  Si6  1  0.750000  0.834484  0.668969  1.0
  Ag  Ag7  1  0.250000  0.748056  0.496112  1.0
  Ag  Ag8  1  0.750000  0.251944  0.503888  1.0
