# generated using pymatgen
data_TmPt
_symmetry_space_group_name_H-M   'P 1'
_cell_length_a   4.42250479
_cell_length_b   6.97508087
_cell_length_c   5.57786118
_cell_angle_alpha   90.00000000
_cell_angle_beta   90.00000000
_cell_angle_gamma   90.00000000
_symmetry_Int_Tables_number   1
_chemical_formula_structural   TmPt
_chemical_formula_sum   'Tm4 Pt4'
_cell_volume   172.06211647
_cell_formula_units_Z   4
loop_
 _symmetry_equiv_pos_site_id
 _symmetry_equiv_pos_as_xyz
  1  'x, y, z'
loop_
 _atom_site_type_symbol
 _atom_site_label
 _atom_site_symmetry_multiplicity
 _atom_site_fract_x
 _atom_site_fract_y
 _atom_site_fract_z
 _atom_site_occupancy
  Tm  Tm1  1  0.750000  0.819026  0.358351  1.0
  Tm  Tm2  1  0.250000  0.180974  0.641649  1.0
  Tm  Tm3  1  0.250000  0.680974  0.858351  1.0
  Tm  Tm4  1  0.750000  0.319026  0.141650  1.0
  Pt  Pt5  1  0.750000  0.955283  0.842479  1.0
  Pt  Pt6  1  0.250000  0.044717  0.157521  1.0
  Pt  Pt7  1  0.250000  0.544717  0.342479  1.0
  Pt  Pt8  1  0.750000  0.455283  0.657521  1.0
