# generated using pymatgen
data_ThSi2Ni
_symmetry_space_group_name_H-M   'P 1'
_cell_length_a   4.11021814
_cell_length_b   4.16490527
_cell_length_c   8.47499715
_cell_angle_alpha   104.22421890
_cell_angle_beta   90.00000000
_cell_angle_gamma   90.00000000
_symmetry_Int_Tables_number   1
_chemical_formula_structural   ThSi2Ni
_chemical_formula_sum   'Th2 Si4 Ni2'
_cell_volume   140.63272726
_cell_formula_units_Z   2
loop_
 _symmetry_equiv_pos_site_id
 _symmetry_equiv_pos_as_xyz
  1  'x, y, z'
loop_
 _atom_site_type_symbol
 _atom_site_label
 _atom_site_symmetry_multiplicity
 _atom_site_fract_x
 _atom_site_fract_y
 _atom_site_fract_z
 _atom_site_occupancy
  Th  Th1  1  0.250000  0.394195  0.788390  1.0
  Th  Th2  1  0.750000  0.605805  0.211610  1.0
  Si  Si3  1  0.250000  0.039422  0.078845  1.0
  Si  Si4  1  0.750000  0.960578  0.921155  1.0
  Si  Si5  1  0.250000  0.749179  0.498358  1.0
  Si  Si6  1  0.750000  0.250821  0.501642  1.0
  Ni  Ni7  1  0.250000  0.180673  0.361347  1.0
  Ni  Ni8  1  0.750000  0.819327  0.638653  1.0
