# generated using pymatgen
data_SmSi2Ni
_symmetry_space_group_name_H-M   'P 1'
_cell_length_a   4.04615456
_cell_length_b   4.10163342
_cell_length_c   8.44376030
_cell_angle_alpha   104.05655634
_cell_angle_beta   90.00000000
_cell_angle_gamma   90.00000000
_symmetry_Int_Tables_number   1
_chemical_formula_structural   SmSi2Ni
_chemical_formula_sum   'Sm2 Si4 Ni2'
_cell_volume   135.93528970
_cell_formula_units_Z   2
loop_
 _symmetry_equiv_pos_site_id
 _symmetry_equiv_pos_as_xyz
  1  'x, y, z'
loop_
 _atom_site_type_symbol
 _atom_site_label
 _atom_site_symmetry_multiplicity
 _atom_site_fract_x
 _atom_site_fract_y
 _atom_site_fract_z
 _atom_site_occupancy
  Sm  Sm1  1  0.250000  0.393785  0.787570  1.0
  Sm  Sm2  1  0.750000  0.606215  0.212430  1.0
  Si  Si3  1  0.250000  0.040444  0.080888  1.0
  Si  Si4  1  0.750000  0.959556  0.919112  1.0
  Si  Si5  1  0.250000  0.749837  0.499674  1.0
  Si  Si6  1  0.750000  0.250163  0.500326  1.0
  Ni  Ni7  1  0.250000  0.180582  0.361165  1.0
  Ni  Ni8  1  0.750000  0.819418  0.638835  1.0
