# generated using pymatgen
data_SmPt
_symmetry_space_group_name_H-M   'P 1'
_cell_length_a   4.59087205
_cell_length_b   7.25311884
_cell_length_c   5.65514663
_cell_angle_alpha   90.00000000
_cell_angle_beta   90.00000000
_cell_angle_gamma   90.00000000
_symmetry_Int_Tables_number   1
_chemical_formula_structural   SmPt
_chemical_formula_sum   'Sm4 Pt4'
_cell_volume   188.30586736
_cell_formula_units_Z   4
loop_
 _symmetry_equiv_pos_site_id
 _symmetry_equiv_pos_as_xyz
  1  'x, y, z'
loop_
 _atom_site_type_symbol
 _atom_site_label
 _atom_site_symmetry_multiplicity
 _atom_site_fract_x
 _atom_site_fract_y
 _atom_site_fract_z
 _atom_site_occupancy
  Sm  Sm1  1  0.750000  0.817468  0.362516  1.0
  Sm  Sm2  1  0.250000  0.182532  0.637484  1.0
  Sm  Sm3  1  0.250000  0.682532  0.862516  1.0
  Sm  Sm4  1  0.750000  0.317468  0.137484  1.0
  Pt  Pt5  1  0.750000  0.955737  0.847904  1.0
  Pt  Pt6  1  0.250000  0.044263  0.152096  1.0
  Pt  Pt7  1  0.250000  0.544263  0.347904  1.0
  Pt  Pt8  1  0.750000  0.455737  0.652096  1.0
