# generated using pymatgen
data_YPt
_symmetry_space_group_name_H-M   'P 1'
_cell_length_a   4.55419316
_cell_length_b   7.05735457
_cell_length_c   5.59438724
_cell_angle_alpha   90.00000000
_cell_angle_beta   90.00000000
_cell_angle_gamma   90.00000000
_symmetry_Int_Tables_number   1
_chemical_formula_structural   YPt
_chemical_formula_sum   'Y4 Pt4'
_cell_volume   179.80671587
_cell_formula_units_Z   4
loop_
 _symmetry_equiv_pos_site_id
 _symmetry_equiv_pos_as_xyz
  1  'x, y, z'
loop_
 _atom_site_type_symbol
 _atom_site_label
 _atom_site_symmetry_multiplicity
 _atom_site_fract_x
 _atom_site_fract_y
 _atom_site_fract_z
 _atom_site_occupancy
  Y  Y1  1  0.750000  0.818716  0.359570  1.0
  Y  Y2  1  0.250000  0.181284  0.640430  1.0
  Y  Y3  1  0.250000  0.681284  0.859570  1.0
  Y  Y4  1  0.750000  0.318716  0.140430  1.0
  Pt  Pt5  1  0.750000  0.957091  0.847353  1.0
  Pt  Pt6  1  0.250000  0.042909  0.152647  1.0
  Pt  Pt7  1  0.250000  0.542909  0.347353  1.0
  Pt  Pt8  1  0.750000  0.457091  0.652647  1.0
