# generated using pymatgen
data_SmSi2Rh
_symmetry_space_group_name_H-M   'P 1'
_cell_length_a   4.19676640
_cell_length_b   4.21276452
_cell_length_c   8.61762689
_cell_angle_alpha   104.14798453
_cell_angle_beta   90.00000000
_cell_angle_gamma   90.00000000
_symmetry_Int_Tables_number   1
_chemical_formula_structural   SmSi2Rh
_chemical_formula_sum   'Sm2 Si4 Rh2'
_cell_volume   147.73812211
_cell_formula_units_Z   2
loop_
 _symmetry_equiv_pos_site_id
 _symmetry_equiv_pos_as_xyz
  1  'x, y, z'
loop_
 _atom_site_type_symbol
 _atom_site_label
 _atom_site_symmetry_multiplicity
 _atom_site_fract_x
 _atom_site_fract_y
 _atom_site_fract_z
 _atom_site_occupancy
  Sm  Sm1  1  0.250000  0.395656  0.791313  1.0
  Sm  Sm2  1  0.750000  0.604344  0.208687  1.0
  Si  Si3  1  0.250000  0.038377  0.076754  1.0
  Si  Si4  1  0.750000  0.961623  0.923246  1.0
  Si  Si5  1  0.250000  0.750479  0.500958  1.0
  Si  Si6  1  0.750000  0.249521  0.499042  1.0
  Rh  Rh7  1  0.250000  0.179153  0.358306  1.0
  Rh  Rh8  1  0.750000  0.820847  0.641694  1.0
