# generated using pymatgen
data_AgAu3
_symmetry_space_group_name_H-M   'P 1'
_cell_length_a   5.86267873
_cell_length_b   5.86308363
_cell_length_c   4.85609225
_cell_angle_alpha   90.00482222
_cell_angle_beta   89.99277901
_cell_angle_gamma   120.09661303
_symmetry_Int_Tables_number   1
_chemical_formula_structural   AgAu3
_chemical_formula_sum   'Ag2 Au6'
_cell_volume   144.41626732
_cell_formula_units_Z   2
loop_
 _symmetry_equiv_pos_site_id
 _symmetry_equiv_pos_as_xyz
  1  'x, y, z'
loop_
 _atom_site_type_symbol
 _atom_site_label
 _atom_site_symmetry_multiplicity
 _atom_site_fract_x
 _atom_site_fract_y
 _atom_site_fract_z
 _atom_site_occupancy
  Ag  Ag1  1  0.333328  0.666673  0.749995  1.0
  Ag  Ag2  1  0.666681  0.333338  0.250009  1.0
  Au  Au3  1  0.167209  0.334424  0.249993  1.0
  Au  Au4  1  0.665593  0.832795  0.249993  1.0
  Au  Au5  1  0.167202  0.832797  0.250025  1.0
  Au  Au6  1  0.832783  0.665581  0.750008  1.0
  Au  Au7  1  0.334415  0.167205  0.750009  1.0
  Au  Au8  1  0.832789  0.167188  0.749979  1.0
