# generated using pymatgen
data_Na5SiP3
_symmetry_space_group_name_H-M   'P 1'
_cell_length_a   7.35209466
_cell_length_b   7.95656251
_cell_length_c   13.16443467
_cell_angle_alpha   90.75695831
_cell_angle_beta   90.00000000
_cell_angle_gamma   90.00000000
_symmetry_Int_Tables_number   1
_chemical_formula_structural   Na5SiP3
_chemical_formula_sum   'Na20 Si4 P12'
_cell_volume   770.01800550
_cell_formula_units_Z   4
loop_
 _symmetry_equiv_pos_site_id
 _symmetry_equiv_pos_as_xyz
  1  'x, y, z'
loop_
 _atom_site_type_symbol
 _atom_site_label
 _atom_site_symmetry_multiplicity
 _atom_site_fract_x
 _atom_site_fract_y
 _atom_site_fract_z
 _atom_site_occupancy
  Na  Na1  1  0.491250  0.186018  0.743189  1.0
  Na  Na2  1  0.991250  0.313982  0.756811  1.0
  Na  Na3  1  0.508750  0.813982  0.256811  1.0
  Na  Na4  1  0.008750  0.686018  0.243189  1.0
  Na  Na5  1  0.017412  0.673668  0.587098  1.0
  Na  Na6  1  0.517412  0.826332  0.912902  1.0
  Na  Na7  1  0.982588  0.326332  0.412902  1.0
  Na  Na8  1  0.482588  0.173668  0.087098  1.0
  Na  Na9  1  0.471001  0.161656  0.418228  1.0
  Na  Na10  1  0.971001  0.338344  0.081772  1.0
  Na  Na11  1  0.528999  0.838344  0.581772  1.0
  Na  Na12  1  0.028999  0.661656  0.918228  1.0
  Na  Na13  1  0.845707  0.921748  0.758546  1.0
  Na  Na14  1  0.345707  0.578252  0.741454  1.0
  Na  Na15  1  0.154294  0.078252  0.241454  1.0
  Na  Na16  1  0.654293  0.421748  0.258546  1.0
  Na  Na17  1  0.663023  0.422531  0.581732  1.0
  Na  Na18  1  0.163023  0.077469  0.918268  1.0
  Na  Na19  1  0.336977  0.577469  0.418268  1.0
  Na  Na20  1  0.836977  0.922531  0.081732  1.0
  Si  Si21  1  0.361807  0.571581  0.082970  1.0
  Si  Si22  1  0.861807  0.928419  0.417030  1.0
  Si  Si23  1  0.638193  0.428419  0.917030  1.0
  Si  Si24  1  0.138193  0.071581  0.582970  1.0
  P  P25  1  0.258140  0.337163  0.579110  1.0
  P  P26  1  0.758140  0.162837  0.920890  1.0
  P  P27  1  0.741860  0.662837  0.420890  1.0
  P  P28  1  0.241860  0.837163  0.079110  1.0
  P  P29  1  0.229201  0.923032  0.720093  1.0
  P  P30  1  0.729201  0.576968  0.779907  1.0
  P  P31  1  0.770799  0.076968  0.279907  1.0
  P  P32  1  0.270799  0.423032  0.220093  1.0
  P  P33  1  0.679326  0.585023  0.065330  1.0
  P  P34  1  0.179326  0.914977  0.434670  1.0
  P  P35  1  0.320674  0.414977  0.934670  1.0
  P  P36  1  0.820674  0.085023  0.565330  1.0
