# generated using pymatgen
data_K(FeAs)2
_symmetry_space_group_name_H-M   'P 1'
_cell_length_a   3.77366377
_cell_length_b   3.77366377
_cell_length_c   7.55368295
_cell_angle_alpha   104.46506558
_cell_angle_beta   104.46506558
_cell_angle_gamma   90.00000000
_symmetry_Int_Tables_number   1
_chemical_formula_structural   K(FeAs)2
_chemical_formula_sum   'K1 Fe2 As2'
_cell_volume   100.63321680
_cell_formula_units_Z   1
loop_
 _symmetry_equiv_pos_site_id
 _symmetry_equiv_pos_as_xyz
  1  'x, y, z'
loop_
 _atom_site_type_symbol
 _atom_site_label
 _atom_site_symmetry_multiplicity
 _atom_site_fract_x
 _atom_site_fract_y
 _atom_site_fract_z
 _atom_site_occupancy
  K  K1  1  0.000000  0.000000  0.000000  1.0
  Fe  Fe2  1  0.250000  0.750000  0.500000  1.0
  Fe  Fe3  1  0.750000  0.250000  0.500000  1.0
  As  As4  1  0.653192  0.653192  0.306384  1.0
  As  As5  1  0.346808  0.346808  0.693616  1.0
