# generated using pymatgen
data_Ca(ClO3)2
_symmetry_space_group_name_H-M   'P 1'
_cell_length_a   7.15858257
_cell_length_b   10.72176585
_cell_length_c   7.41484039
_cell_angle_alpha   90.00000000
_cell_angle_beta   106.11301949
_cell_angle_gamma   90.00000000
_symmetry_Int_Tables_number   1
_chemical_formula_structural   Ca(ClO3)2
_chemical_formula_sum   'Ca4 Cl8 O24'
_cell_volume   546.75182260
_cell_formula_units_Z   4
loop_
 _symmetry_equiv_pos_site_id
 _symmetry_equiv_pos_as_xyz
  1  'x, y, z'
loop_
 _atom_site_type_symbol
 _atom_site_label
 _atom_site_symmetry_multiplicity
 _atom_site_fract_x
 _atom_site_fract_y
 _atom_site_fract_z
 _atom_site_occupancy
  Ca  Ca1  1  0.225984  0.892120  0.990221  1.0
  Ca  Ca2  1  0.274016  0.392120  0.509779  1.0
  Ca  Ca3  1  0.725984  0.607880  0.490221  1.0
  Ca  Ca4  1  0.774016  0.107880  0.009779  1.0
  Cl  Cl5  1  0.252671  0.198017  0.920593  1.0
  Cl  Cl6  1  0.247329  0.698017  0.579407  1.0
  Cl  Cl7  1  0.209765  0.070702  0.417493  1.0
  Cl  Cl8  1  0.290235  0.570702  0.082507  1.0
  Cl  Cl9  1  0.709765  0.429298  0.917493  1.0
  Cl  Cl10  1  0.790235  0.929298  0.582507  1.0
  Cl  Cl11  1  0.752671  0.301983  0.420593  1.0
  Cl  Cl12  1  0.747329  0.801983  0.079407  1.0
  O  O13  1  0.101355  0.110438  0.958906  1.0
  O  O14  1  0.004167  0.910268  0.675869  1.0
  O  O15  1  0.088469  0.607827  0.594635  1.0
  O  O16  1  0.164504  0.253348  0.731815  1.0
  O  O17  1  0.335496  0.753348  0.768185  1.0
  O  O18  1  0.192586  0.691782  0.109413  1.0
  O  O19  1  0.212643  0.472507  0.186363  1.0
  O  O20  1  0.411531  0.107827  0.905365  1.0
  O  O21  1  0.287357  0.972507  0.313637  1.0
  O  O22  1  0.307414  0.191782  0.390587  1.0
  O  O23  1  0.495833  0.410268  0.824131  1.0
  O  O24  1  0.398645  0.610438  0.541094  1.0
  O  O25  1  0.601355  0.389562  0.458906  1.0
  O  O26  1  0.504167  0.589732  0.175869  1.0
  O  O27  1  0.692586  0.808218  0.609413  1.0
  O  O28  1  0.712643  0.027493  0.686363  1.0
  O  O29  1  0.588469  0.892173  0.094635  1.0
  O  O30  1  0.787357  0.527493  0.813637  1.0
  O  O31  1  0.807414  0.308218  0.890587  1.0
  O  O32  1  0.664504  0.246652  0.231815  1.0
  O  O33  1  0.835496  0.746652  0.268185  1.0
  O  O34  1  0.911531  0.392173  0.405365  1.0
  O  O35  1  0.995833  0.089732  0.324131  1.0
  O  O36  1  0.898645  0.889562  0.041094  1.0
