# generated using pymatgen
data_Th(CuSi)2
_symmetry_space_group_name_H-M   'P 1'
_cell_length_a   4.10652169
_cell_length_b   4.10652169
_cell_length_c   5.72383880
_cell_angle_alpha   111.02165993
_cell_angle_beta   111.02165993
_cell_angle_gamma   90.00000000
_symmetry_Int_Tables_number   1
_chemical_formula_structural   Th(CuSi)2
_chemical_formula_sum   'Th1 Cu2 Si2'
_cell_volume   83.18105517
_cell_formula_units_Z   1
loop_
 _symmetry_equiv_pos_site_id
 _symmetry_equiv_pos_as_xyz
  1  'x, y, z'
loop_
 _atom_site_type_symbol
 _atom_site_label
 _atom_site_symmetry_multiplicity
 _atom_site_fract_x
 _atom_site_fract_y
 _atom_site_fract_z
 _atom_site_occupancy
  Th  Th1  1  0.000000  0.000000  0.000000  1.0
  Cu  Cu2  1  0.250000  0.750000  0.500000  1.0
  Cu  Cu3  1  0.750000  0.250000  0.500000  1.0
  Si  Si4  1  0.621439  0.621439  0.242877  1.0
  Si  Si5  1  0.378561  0.378561  0.757123  1.0
