# generated using pymatgen
data_YBPt2
_symmetry_space_group_name_H-M   'P 1'
_cell_length_a   5.35950536
_cell_length_b   5.35950536
_cell_length_c   7.99425687
_cell_angle_alpha   90.00000000
_cell_angle_beta   90.00000000
_cell_angle_gamma   120.00000002
_symmetry_Int_Tables_number   1
_chemical_formula_structural   YBPt2
_chemical_formula_sum   'Y3 B3 Pt6'
_cell_volume   198.86490616
_cell_formula_units_Z   3
loop_
 _symmetry_equiv_pos_site_id
 _symmetry_equiv_pos_as_xyz
  1  'x, y, z'
loop_
 _atom_site_type_symbol
 _atom_site_label
 _atom_site_symmetry_multiplicity
 _atom_site_fract_x
 _atom_site_fract_y
 _atom_site_fract_z
 _atom_site_occupancy
  Y  Y1  1  0.500000  0.500000  0.333333  1.0
  Y  Y2  1  0.000000  0.500000  0.666667  1.0
  Y  Y3  1  0.500000  0.000000  0.000000  1.0
  B  B4  1  0.000000  0.500000  0.166667  1.0
  B  B5  1  0.500000  0.500000  0.833333  1.0
  B  B6  1  0.500000  0.000000  0.500000  1.0
  Pt  Pt7  1  0.304809  0.152405  0.666667  1.0
  Pt  Pt8  1  0.152405  0.847595  0.333333  1.0
  Pt  Pt9  1  0.847595  0.695191  0.000000  1.0
  Pt  Pt10  1  0.847595  0.152405  0.333333  1.0
  Pt  Pt11  1  0.152405  0.304809  0.000000  1.0
  Pt  Pt12  1  0.695191  0.847595  0.666667  1.0
