# generated using pymatgen
data_TiAlF5
_symmetry_space_group_name_H-M   'P 1'
_cell_length_a   3.62702074
_cell_length_b   5.31162804
_cell_length_c   5.31162775
_cell_angle_alpha   73.37365136
_cell_angle_beta   70.03642981
_cell_angle_gamma   70.03641872
_symmetry_Int_Tables_number   1
_chemical_formula_structural   TiAlF5
_chemical_formula_sum   'Ti1 Al1 F5'
_cell_volume   88.72118495
_cell_formula_units_Z   1
loop_
 _symmetry_equiv_pos_site_id
 _symmetry_equiv_pos_as_xyz
  1  'x, y, z'
loop_
 _atom_site_type_symbol
 _atom_site_label
 _atom_site_symmetry_multiplicity
 _atom_site_fract_x
 _atom_site_fract_y
 _atom_site_fract_z
 _atom_site_occupancy
  Ti  Ti1  1  0.000000  0.000000  0.000000  1.0
  Al  Al2  1  0.500000  0.500000  0.500000  1.0
  F  F3  1  0.500000  0.792647  0.207353  1.0
  F  F4  1  0.500000  0.207353  0.792647  1.0
  F  F5  1  0.732738  0.267262  0.267262  1.0
  F  F6  1  0.267262  0.732738  0.732738  1.0
  F  F7  1  0.000000  0.500000  0.500000  1.0
