# generated using pymatgen
data_Cu3AsSe4
_symmetry_space_group_name_H-M   'P 1'
_cell_length_a   7.94845991
_cell_length_b   10.49620496
_cell_length_c   6.84186104
_cell_angle_alpha   29.25590267
_cell_angle_beta   54.49914435
_cell_angle_gamma   40.70364946
_symmetry_Int_Tables_number   1
_chemical_formula_structural   Cu3AsSe4
_chemical_formula_sum   'Cu3 As1 Se4'
_cell_volume   175.99732284
_cell_formula_units_Z   1
loop_
 _symmetry_equiv_pos_site_id
 _symmetry_equiv_pos_as_xyz
  1  'x, y, z'
loop_
 _atom_site_type_symbol
 _atom_site_label
 _atom_site_symmetry_multiplicity
 _atom_site_fract_x
 _atom_site_fract_y
 _atom_site_fract_z
 _atom_site_occupancy
  Cu  Cu1  1  0.998404  0.004171  0.993032  1.0
  Cu  Cu2  1  0.496138  0.001943  0.999698  1.0
  Cu  Cu3  1  0.744477  0.503950  0.998415  1.0
  As  As4  1  0.248720  0.502035  0.996169  1.0
  Se  Se5  1  0.372427  0.501610  0.258637  1.0
  Se  Se6  1  0.119225  0.015890  0.225741  1.0
  Se  Se7  1  0.861548  0.504518  0.253870  1.0
  Se  Se8  1  0.635298  0.990473  0.248144  1.0
