# generated using pymatgen
data_FeF4
_symmetry_space_group_name_H-M   'P 1'
_cell_length_a   5.45206901
_cell_length_b   5.45034761
_cell_length_c   6.36842733
_cell_angle_alpha   115.62056730
_cell_angle_beta   115.38616829
_cell_angle_gamma   89.96216635
_symmetry_Int_Tables_number   1
_chemical_formula_structural   FeF4
_chemical_formula_sum   'Fe2 F8'
_cell_volume   150.14283869
_cell_formula_units_Z   2
loop_
 _symmetry_equiv_pos_site_id
 _symmetry_equiv_pos_as_xyz
  1  'x, y, z'
loop_
 _atom_site_type_symbol
 _atom_site_label
 _atom_site_symmetry_multiplicity
 _atom_site_fract_x
 _atom_site_fract_y
 _atom_site_fract_z
 _atom_site_occupancy
  Fe  Fe1  1  0.997234  0.499346  0.998639  1.0
  Fe  Fe2  1  0.500223  0.000359  0.998866  1.0
  F  F3  1  0.952878  0.451191  0.238521  1.0
  F  F4  1  0.708803  0.215110  0.755497  1.0
  F  F5  1  0.042201  0.546533  0.758983  1.0
  F  F6  1  0.213599  0.046158  0.759240  1.0
  F  F7  1  0.285254  0.783175  0.241692  1.0
  F  F8  1  0.456613  0.285202  0.242166  1.0
  F  F9  1  0.782891  0.949717  0.238346  1.0
  F  F10  1  0.544951  0.715848  0.755518  1.0
