# generated using pymatgen
data_YTiO3
_symmetry_space_group_name_H-M   'P 1'
_cell_length_a   3.52196057
_cell_length_b   3.52196063
_cell_length_c   12.11084604
_cell_angle_alpha   90.00000000
_cell_angle_beta   90.00000000
_cell_angle_gamma   119.99999932
_symmetry_Int_Tables_number   1
_chemical_formula_structural   YTiO3
_chemical_formula_sum   'Y2 Ti2 O6'
_cell_volume   130.09904371
_cell_formula_units_Z   2
loop_
 _symmetry_equiv_pos_site_id
 _symmetry_equiv_pos_as_xyz
  1  'x, y, z'
loop_
 _atom_site_type_symbol
 _atom_site_label
 _atom_site_symmetry_multiplicity
 _atom_site_fract_x
 _atom_site_fract_y
 _atom_site_fract_z
 _atom_site_occupancy
  Y  Y1  1  0.000000  0.000000  0.500000  1.0
  Y  Y2  1  0.000000  0.000000  0.000000  1.0
  Ti  Ti3  1  0.666665  0.333332  0.750000  1.0
  Ti  Ti4  1  0.333334  0.666668  0.250000  1.0
  O  O5  1  0.333334  0.666668  0.414220  1.0
  O  O6  1  0.666665  0.333332  0.914220  1.0
  O  O7  1  0.666665  0.333332  0.585781  1.0
  O  O8  1  0.333334  0.666668  0.085780  1.0
  O  O9  1  0.000000  0.000000  0.250000  1.0
  O  O10  1  0.000000  0.000000  0.750000  1.0
