# generated using pymatgen
data_AlVO3
_symmetry_space_group_name_H-M   'P 1'
_cell_length_a   3.17769321
_cell_length_b   3.17769326
_cell_length_c   12.05797168
_cell_angle_alpha   90.00000000
_cell_angle_beta   90.00000000
_cell_angle_gamma   119.99999958
_symmetry_Int_Tables_number   1
_chemical_formula_structural   AlVO3
_chemical_formula_sum   'Al2 V2 O6'
_cell_volume   105.44568972
_cell_formula_units_Z   2
loop_
 _symmetry_equiv_pos_site_id
 _symmetry_equiv_pos_as_xyz
  1  'x, y, z'
loop_
 _atom_site_type_symbol
 _atom_site_label
 _atom_site_symmetry_multiplicity
 _atom_site_fract_x
 _atom_site_fract_y
 _atom_site_fract_z
 _atom_site_occupancy
  Al  Al1  1  0.000000  0.000000  0.500000  1.0
  Al  Al2  1  0.000000  0.000000  0.000000  1.0
  V  V3  1  0.666665  0.333332  0.750000  1.0
  V  V4  1  0.333334  0.666668  0.250000  1.0
  O  O5  1  0.333334  0.666668  0.423986  1.0
  O  O6  1  0.666665  0.333332  0.923986  1.0
  O  O7  1  0.666665  0.333332  0.576015  1.0
  O  O8  1  0.333334  0.666668  0.076014  1.0
  O  O9  1  0.000000  0.000000  0.250000  1.0
  O  O10  1  0.000000  0.000000  0.750000  1.0
