# generated using pymatgen
data_MnS2
_symmetry_space_group_name_H-M   'P 1'
_cell_length_a   7.59147696
_cell_length_b   7.59147710
_cell_length_c   7.59147686
_cell_angle_alpha   25.50727049
_cell_angle_beta   25.50727585
_cell_angle_gamma   25.50727636
_symmetry_Int_Tables_number   1
_chemical_formula_structural   MnS2
_chemical_formula_sum   'Mn1 S2'
_cell_volume   71.41973192
_cell_formula_units_Z   1
loop_
 _symmetry_equiv_pos_site_id
 _symmetry_equiv_pos_as_xyz
  1  'x, y, z'
loop_
 _atom_site_type_symbol
 _atom_site_label
 _atom_site_symmetry_multiplicity
 _atom_site_fract_x
 _atom_site_fract_y
 _atom_site_fract_z
 _atom_site_occupancy
  Mn  Mn1  1  0.000000  0.000000  0.000000  1.0
  S  S2  1  0.606697  0.606697  0.606697  1.0
  S  S3  1  0.393303  0.393303  0.393303  1.0
