# generated using pymatgen
data_NdRhC2
_symmetry_space_group_name_H-M   'P 1'
_cell_length_a   3.71836445
_cell_length_b   4.07530161
_cell_length_c   4.07530161
_cell_angle_alpha   109.03897438
_cell_angle_beta   90.00000000
_cell_angle_gamma   90.00000000
_symmetry_Int_Tables_number   1
_chemical_formula_structural   NdRhC2
_chemical_formula_sum   'Nd1 Rh1 C2'
_cell_volume   58.37672110
_cell_formula_units_Z   1
loop_
 _symmetry_equiv_pos_site_id
 _symmetry_equiv_pos_as_xyz
  1  'x, y, z'
loop_
 _atom_site_type_symbol
 _atom_site_label
 _atom_site_symmetry_multiplicity
 _atom_site_fract_x
 _atom_site_fract_y
 _atom_site_fract_z
 _atom_site_occupancy
  Nd  Nd1  1  0.000000  0.025045  0.974955  1.0
  Rh  Rh2  1  0.500000  0.649252  0.350748  1.0
  C  C3  1  0.500000  0.481507  0.803805  1.0
  C  C4  1  0.500000  0.196195  0.518493  1.0
