# generated using pymatgen
data_Li(SiRh)2
_symmetry_space_group_name_H-M   'P 1'
_cell_length_a   7.04651766
_cell_length_b   7.04651766
_cell_length_c   2.77146198
_cell_angle_alpha   90.00000000
_cell_angle_beta   90.00000000
_cell_angle_gamma   90.00000000
_symmetry_Int_Tables_number   1
_chemical_formula_structural   Li(SiRh)2
_chemical_formula_sum   'Li2 Si4 Rh4'
_cell_volume   137.61254113
_cell_formula_units_Z   2
loop_
 _symmetry_equiv_pos_site_id
 _symmetry_equiv_pos_as_xyz
  1  'x, y, z'
loop_
 _atom_site_type_symbol
 _atom_site_label
 _atom_site_symmetry_multiplicity
 _atom_site_fract_x
 _atom_site_fract_y
 _atom_site_fract_z
 _atom_site_occupancy
  Li  Li1  1  0.000000  0.000000  0.000000  1.0
  Li  Li2  1  0.500000  0.500000  0.000000  1.0
  Si  Si3  1  0.645529  0.145529  0.000000  1.0
  Si  Si4  1  0.145529  0.354470  0.000000  1.0
  Si  Si5  1  0.854471  0.645529  0.000000  1.0
  Si  Si6  1  0.354470  0.854471  0.000000  1.0
  Rh  Rh7  1  0.349985  0.150017  0.499999  1.0
  Rh  Rh8  1  0.849984  0.349985  0.499999  1.0
  Rh  Rh9  1  0.150017  0.650016  0.499999  1.0
  Rh  Rh10  1  0.650016  0.849984  0.499999  1.0
