# generated using pymatgen
data_KCN
_symmetry_space_group_name_H-M   'P 1'
_cell_length_a   5.78056742
_cell_length_b   4.47168456
_cell_length_c   4.47168467
_cell_angle_alpha   72.39671591
_cell_angle_beta   50.19756587
_cell_angle_gamma   50.19756496
_symmetry_Int_Tables_number   1
_chemical_formula_structural   KCN
_chemical_formula_sum   'K1 C1 N1'
_cell_volume   67.08401629
_cell_formula_units_Z   1
loop_
 _symmetry_equiv_pos_site_id
 _symmetry_equiv_pos_as_xyz
  1  'x, y, z'
loop_
 _atom_site_type_symbol
 _atom_site_label
 _atom_site_symmetry_multiplicity
 _atom_site_fract_x
 _atom_site_fract_y
 _atom_site_fract_z
 _atom_site_occupancy
  K  K1  1  0.000000  0.009604  0.990396  1.0
  C  C2  1  0.500000  0.107026  0.892974  1.0
  N  N3  1  0.500000  0.883371  0.116629  1.0
