# generated using pymatgen
data_Ba(PRh)2
_symmetry_space_group_name_H-M   'P 1'
_cell_length_a   3.98585880
_cell_length_b   3.98585880
_cell_length_c   6.97461912
_cell_angle_alpha   106.60310186
_cell_angle_beta   106.60310182
_cell_angle_gamma   90.00000004
_symmetry_Int_Tables_number   1
_chemical_formula_structural   Ba(PRh)2
_chemical_formula_sum   'Ba1 P2 Rh2'
_cell_volume   101.35624274
_cell_formula_units_Z   1
loop_
 _symmetry_equiv_pos_site_id
 _symmetry_equiv_pos_as_xyz
  1  'x, y, z'
loop_
 _atom_site_type_symbol
 _atom_site_label
 _atom_site_symmetry_multiplicity
 _atom_site_fract_x
 _atom_site_fract_y
 _atom_site_fract_z
 _atom_site_occupancy
  Ba  Ba1  1  0.000000  0.000000  0.000000  1.0
  P  P2  1  0.649645  0.649645  0.299290  1.0
  P  P3  1  0.350355  0.350355  0.700710  1.0
  Rh  Rh4  1  0.250000  0.750000  0.500000  1.0
  Rh  Rh5  1  0.750000  0.250000  0.500000  1.0
