# generated using pymatgen
data_AlSbO3
_symmetry_space_group_name_H-M   'P 1'
_cell_length_a   3.51644457
_cell_length_b   3.51644463
_cell_length_c   12.70310634
_cell_angle_alpha   90.00000000
_cell_angle_beta   90.00000000
_cell_angle_gamma   119.99999935
_symmetry_Int_Tables_number   1
_chemical_formula_structural   AlSbO3
_chemical_formula_sum   'Al2 Sb2 O6'
_cell_volume   136.03420647
_cell_formula_units_Z   2
loop_
 _symmetry_equiv_pos_site_id
 _symmetry_equiv_pos_as_xyz
  1  'x, y, z'
loop_
 _atom_site_type_symbol
 _atom_site_label
 _atom_site_symmetry_multiplicity
 _atom_site_fract_x
 _atom_site_fract_y
 _atom_site_fract_z
 _atom_site_occupancy
  Al  Al1  1  0.000000  0.000000  0.500000  1.0
  Al  Al2  1  0.000000  0.000000  0.000000  1.0
  Sb  Sb3  1  0.666665  0.333332  0.750000  1.0
  Sb  Sb4  1  0.333334  0.666668  0.250000  1.0
  O  O5  1  0.333334  0.666668  0.434622  1.0
  O  O6  1  0.666665  0.333332  0.934622  1.0
  O  O7  1  0.666665  0.333332  0.565379  1.0
  O  O8  1  0.333334  0.666668  0.065378  1.0
  O  O9  1  0.000000  0.000000  0.250000  1.0
  O  O10  1  0.000000  0.000000  0.750000  1.0
