# generated using pymatgen
data_TeO3
_symmetry_space_group_name_H-M   'P 1'
_cell_length_a   3.77225224
_cell_length_b   3.77225341
_cell_length_c   11.75437425
_cell_angle_alpha   90.00000000
_cell_angle_beta   90.00000000
_cell_angle_gamma   120.00000247
_symmetry_Int_Tables_number   1
_chemical_formula_structural   TeO3
_chemical_formula_sum   'Te2 O6'
_cell_volume   144.85440947
_cell_formula_units_Z   2
loop_
 _symmetry_equiv_pos_site_id
 _symmetry_equiv_pos_as_xyz
  1  'x, y, z'
loop_
 _atom_site_type_symbol
 _atom_site_label
 _atom_site_symmetry_multiplicity
 _atom_site_fract_x
 _atom_site_fract_y
 _atom_site_fract_z
 _atom_site_occupancy
  Te  Te1  1  0.666665  0.333332  0.750000  1.0
  Te  Te2  1  0.333334  0.666668  0.250000  1.0
  O  O3  1  0.333334  0.666668  0.402747  1.0
  O  O4  1  0.666665  0.333332  0.902747  1.0
  O  O5  1  0.666665  0.333332  0.597254  1.0
  O  O6  1  0.333334  0.666668  0.097253  1.0
  O  O7  1  0.000000  0.000000  0.250000  1.0
  O  O8  1  0.000000  0.000000  0.750000  1.0
