# generated using pymatgen
data_NbBO4
_symmetry_space_group_name_H-M   'P 1'
_cell_length_a   5.26049723
_cell_length_b   5.26049723
_cell_length_c   5.26049723
_cell_angle_alpha   106.05483175
_cell_angle_beta   106.05483169
_cell_angle_gamma   116.54404830
_symmetry_Int_Tables_number   1
_chemical_formula_structural   NbBO4
_chemical_formula_sum   'Nb2 B2 O8'
_cell_volume   110.76614969
_cell_formula_units_Z   2
loop_
 _symmetry_equiv_pos_site_id
 _symmetry_equiv_pos_as_xyz
  1  'x, y, z'
loop_
 _atom_site_type_symbol
 _atom_site_label
 _atom_site_symmetry_multiplicity
 _atom_site_fract_x
 _atom_site_fract_y
 _atom_site_fract_z
 _atom_site_occupancy
  Nb  Nb1  1  0.125000  0.875000  0.250000  1.0
  Nb  Nb2  1  0.875000  0.125000  0.750000  1.0
  B  B3  1  0.625000  0.375000  0.250000  1.0
  B  B4  1  0.375000  0.625000  0.750000  1.0
  O  O5  1  0.800053  0.373227  0.073175  1.0
  O  O6  1  0.726878  0.800053  0.926825  1.0
  O  O7  1  0.273122  0.199947  0.073175  1.0
  O  O8  1  0.199947  0.626773  0.926825  1.0
  O  O9  1  0.199947  0.273122  0.573175  1.0
  O  O10  1  0.626773  0.199947  0.426825  1.0
  O  O11  1  0.800053  0.726878  0.426825  1.0
  O  O12  1  0.373227  0.800053  0.573175  1.0
