# generated using pymatgen
data_K4CO6
_symmetry_space_group_name_H-M   'P 1'
_cell_length_a   5.80053785
_cell_length_b   5.37121561
_cell_length_c   7.39656877
_cell_angle_alpha   86.53863157
_cell_angle_beta   88.83658136
_cell_angle_gamma   109.97496653
_symmetry_Int_Tables_number   1
_chemical_formula_structural   K4CO6
_chemical_formula_sum   'K4 C1 O6'
_cell_volume   215.98285224
_cell_formula_units_Z   1
loop_
 _symmetry_equiv_pos_site_id
 _symmetry_equiv_pos_as_xyz
  1  'x, y, z'
loop_
 _atom_site_type_symbol
 _atom_site_label
 _atom_site_symmetry_multiplicity
 _atom_site_fract_x
 _atom_site_fract_y
 _atom_site_fract_z
 _atom_site_occupancy
  K  K1  1  0.450142  0.651346  0.230940  1.0
  K  K2  1  0.057104  0.067928  0.995439  1.0
  K  K3  1  0.071666  0.035198  0.519027  1.0
  K  K4  1  0.684631  0.325911  0.715071  1.0
  C  C5  1  0.415423  0.720424  0.752493  1.0
  O  O6  1  0.301288  0.883753  0.782945  1.0
  O  O7  1  0.833271  0.426470  0.352175  1.0
  O  O8  1  0.378290  0.128771  0.241948  1.0
  O  O9  1  0.654983  0.797880  0.766140  1.0
  O  O10  1  0.293389  0.480502  0.708540  1.0
  O  O11  1  0.935508  0.644001  0.240782  1.0
