# generated using pymatgen
data_ZnMoF6
_symmetry_space_group_name_H-M   'P 1'
_cell_length_a   5.68891121
_cell_length_b   5.68891059
_cell_length_c   5.68891024
_cell_angle_alpha   57.12654766
_cell_angle_beta   57.12654608
_cell_angle_gamma   57.12655119
_symmetry_Int_Tables_number   1
_chemical_formula_structural   ZnMoF6
_chemical_formula_sum   'Zn1 Mo1 F6'
_cell_volume   121.56818752
_cell_formula_units_Z   1
loop_
 _symmetry_equiv_pos_site_id
 _symmetry_equiv_pos_as_xyz
  1  'x, y, z'
loop_
 _atom_site_type_symbol
 _atom_site_label
 _atom_site_symmetry_multiplicity
 _atom_site_fract_x
 _atom_site_fract_y
 _atom_site_fract_z
 _atom_site_occupancy
  Zn  Zn1  1  0.500000  0.500000  0.500000  1.0
  Mo  Mo2  1  0.000000  0.000000  0.000000  1.0
  F  F3  1  0.337319  0.155773  0.756708  1.0
  F  F4  1  0.155773  0.756708  0.337319  1.0
  F  F5  1  0.243292  0.662681  0.844227  1.0
  F  F6  1  0.844227  0.243292  0.662681  1.0
  F  F7  1  0.662681  0.844227  0.243292  1.0
  F  F8  1  0.756708  0.337319  0.155773  1.0
