# generated using pymatgen
data_H2C
_symmetry_space_group_name_H-M   'P 1'
_cell_length_a   7.17882863
_cell_length_b   4.93778896
_cell_length_c   2.56307595
_cell_angle_alpha   90.00000000
_cell_angle_beta   90.00000000
_cell_angle_gamma   90.00000000
_symmetry_Int_Tables_number   1
_chemical_formula_structural   H2C
_chemical_formula_sum   'H8 C4'
_cell_volume   90.85473920
_cell_formula_units_Z   4
loop_
 _symmetry_equiv_pos_site_id
 _symmetry_equiv_pos_as_xyz
  1  'x, y, z'
loop_
 _atom_site_type_symbol
 _atom_site_label
 _atom_site_symmetry_multiplicity
 _atom_site_fract_x
 _atom_site_fract_y
 _atom_site_fract_z
 _atom_site_occupancy
  H  H1  1  0.193023  0.962896  0.250000  1.0
  H  H2  1  0.806977  0.037104  0.750000  1.0
  H  H3  1  0.306977  0.462896  0.750000  1.0
  H  H4  1  0.693023  0.537104  0.250000  1.0
  H  H5  1  0.014583  0.717858  0.250000  1.0
  H  H6  1  0.985417  0.282142  0.750000  1.0
  H  H7  1  0.485417  0.217858  0.750000  1.0
  H  H8  1  0.514583  0.782142  0.250000  1.0
  C  C9  1  0.040242  0.938431  0.250000  1.0
  C  C10  1  0.959758  0.061569  0.750000  1.0
  C  C11  1  0.459758  0.438431  0.750000  1.0
  C  C12  1  0.540242  0.561569  0.250000  1.0
