# generated using pymatgen
data_Ba2Ga2O5
_symmetry_space_group_name_H-M   'P 1'
_cell_length_a   8.29828804
_cell_length_b   3.99819859
_cell_length_c   3.99819859
_cell_angle_alpha   90.00000000
_cell_angle_beta   90.00000000
_cell_angle_gamma   90.00000000
_symmetry_Int_Tables_number   1
_chemical_formula_structural   Ba2Ga2O5
_chemical_formula_sum   'Ba2 Ga2 O5'
_cell_volume   132.65304662
_cell_formula_units_Z   1
loop_
 _symmetry_equiv_pos_site_id
 _symmetry_equiv_pos_as_xyz
  1  'x, y, z'
loop_
 _atom_site_type_symbol
 _atom_site_label
 _atom_site_symmetry_multiplicity
 _atom_site_fract_x
 _atom_site_fract_y
 _atom_site_fract_z
 _atom_site_occupancy
  Ba  Ba1  1  0.000000  0.000000  0.000000  1.0
  Ba  Ba2  1  0.500001  0.000000  0.000000  1.0
  Ga  Ga3  1  0.271258  0.499999  0.499999  1.0
  Ga  Ga4  1  0.728742  0.499999  0.499999  1.0
  O  O5  1  0.229651  0.499999  0.000000  1.0
  O  O6  1  0.770349  0.499999  0.000000  1.0
  O  O7  1  0.229651  0.000000  0.499999  1.0
  O  O8  1  0.770349  0.000000  0.499999  1.0
  O  O9  1  0.500001  0.499999  0.499999  1.0
