# generated using pymatgen
data_MoO3
_symmetry_space_group_name_H-M   'P 1'
_cell_length_a   5.40001815
_cell_length_b   5.44034009
_cell_length_c   7.79665791
_cell_angle_alpha   90.47567236
_cell_angle_beta   89.10702631
_cell_angle_gamma   92.13463219
_symmetry_Int_Tables_number   1
_chemical_formula_structural   MoO3
_chemical_formula_sum   'Mo4 O12'
_cell_volume   228.85613254
_cell_formula_units_Z   4
loop_
 _symmetry_equiv_pos_site_id
 _symmetry_equiv_pos_as_xyz
  1  'x, y, z'
loop_
 _atom_site_type_symbol
 _atom_site_label
 _atom_site_symmetry_multiplicity
 _atom_site_fract_x
 _atom_site_fract_y
 _atom_site_fract_z
 _atom_site_occupancy
  Mo  Mo1  1  0.522728  0.989558  0.024710  1.0
  Mo  Mo2  1  0.032180  0.481310  0.014957  1.0
  Mo  Mo3  1  0.021325  0.486779  0.525049  1.0
  Mo  Mo4  1  0.538244  0.996633  0.514692  1.0
  O  O5  1  0.711958  0.286843  0.460811  1.0
  O  O6  1  0.211275  0.226910  0.526601  1.0
  O  O7  1  0.767435  0.781564  0.025462  1.0
  O  O8  1  0.264687  0.730188  0.962128  1.0
  O  O9  1  0.263849  0.731444  0.517751  1.0
  O  O10  1  0.771491  0.782709  0.467579  1.0
  O  O11  1  0.213625  0.222469  0.966324  1.0
  O  O12  1  0.709890  0.282014  0.018562  1.0
  O  O13  1  0.051223  0.493329  0.241672  1.0
  O  O14  1  0.552279  0.009030  0.741612  1.0
  O  O15  1  0.933448  0.506840  0.746071  1.0
  O  O16  1  0.434359  0.992377  0.246023  1.0
