# generated using pymatgen
data_SrCuSO
_symmetry_space_group_name_H-M   'P 1'
_cell_length_a   3.80804898
_cell_length_b   3.80804896
_cell_length_c   9.96131774
_cell_angle_alpha   101.01941716
_cell_angle_beta   101.01942032
_cell_angle_gamma   90.00000089
_symmetry_Int_Tables_number   1
_chemical_formula_structural   SrCuSO
_chemical_formula_sum   'Sr2 Cu2 S2 O2'
_cell_volume   139.07377559
_cell_formula_units_Z   2
loop_
 _symmetry_equiv_pos_site_id
 _symmetry_equiv_pos_as_xyz
  1  'x, y, z'
loop_
 _atom_site_type_symbol
 _atom_site_label
 _atom_site_symmetry_multiplicity
 _atom_site_fract_x
 _atom_site_fract_y
 _atom_site_fract_z
 _atom_site_occupancy
  Sr  Sr1  1  0.580750  0.580750  0.161500  1.0
  Sr  Sr2  1  0.419250  0.419250  0.838500  1.0
  Cu  Cu3  1  0.750000  0.250000  0.500000  1.0
  Cu  Cu4  1  0.250000  0.750000  0.500000  1.0
  S  S5  1  0.822085  0.822085  0.644170  1.0
  S  S6  1  0.177915  0.177915  0.355830  1.0
  O  O7  1  0.500000  0.000000  0.000000  1.0
  O  O8  1  0.000000  0.500000  0.000000  1.0
