# generated using pymatgen
data_Mg2Al4Si5O18
_symmetry_space_group_name_H-M   'P 1'
_cell_length_a   9.44015984
_cell_length_b   9.83024060
_cell_length_c   9.93464511
_cell_angle_alpha   119.65296525
_cell_angle_beta   90.00000000
_cell_angle_gamma   90.00000000
_symmetry_Int_Tables_number   1
_chemical_formula_structural   Mg2Al4Si5O18
_chemical_formula_sum   'Mg4 Al8 Si10 O36'
_cell_volume   801.18829293
_cell_formula_units_Z   2
loop_
 _symmetry_equiv_pos_site_id
 _symmetry_equiv_pos_as_xyz
  1  'x, y, z'
loop_
 _atom_site_type_symbol
 _atom_site_label
 _atom_site_symmetry_multiplicity
 _atom_site_fract_x
 _atom_site_fract_y
 _atom_site_fract_z
 _atom_site_occupancy
  Mg  Mg1  1  0.250000  0.662531  0.325062  1.0
  Mg  Mg2  1  0.250000  0.337469  0.674938  1.0
  Mg  Mg3  1  0.750000  0.337469  0.674938  1.0
  Mg  Mg4  1  0.750000  0.662531  0.325062  1.0
  Al  Al5  1  0.249924  0.500000  0.500000  1.0
  Al  Al6  1  0.250076  0.000000  0.500000  1.0
  Al  Al7  1  0.749924  0.000000  0.500000  1.0
  Al  Al8  1  0.750076  0.500000  0.500000  1.0
  Al  Al9  1  0.500000  0.358387  0.100772  1.0
  Al  Al10  1  0.500000  0.641613  0.899228  1.0
  Al  Al11  1  0.000000  0.257615  0.899228  1.0
  Al  Al12  1  0.000000  0.742385  0.100772  1.0
  Si  Si13  1  0.500000  0.729109  0.615621  1.0
  Si  Si14  1  0.500000  0.270891  0.384379  1.0
  Si  Si15  1  0.000000  0.886512  0.615621  1.0
  Si  Si16  1  0.000000  0.113488  0.384379  1.0
  Si  Si17  1  0.750000  0.500000  0.000000  1.0
  Si  Si18  1  0.250000  0.500000  0.000000  1.0
  Si  Si19  1  0.000000  0.627906  0.729446  1.0
  Si  Si20  1  0.000000  0.372094  0.270554  1.0
  Si  Si21  1  0.500000  0.898461  0.270554  1.0
  Si  Si22  1  0.500000  0.101539  0.729446  1.0
  O  O23  1  0.348938  0.478727  0.124935  1.0
  O  O24  1  0.858195  0.483457  0.346868  1.0
  O  O25  1  0.358195  0.136589  0.653132  1.0
  O  O26  1  0.358195  0.863411  0.346868  1.0
  O  O27  1  0.500000  0.914582  0.671575  1.0
  O  O28  1  0.500000  0.085418  0.328425  1.0
  O  O29  1  0.000000  0.243006  0.328425  1.0
  O  O30  1  0.000000  0.756994  0.671575  1.0
  O  O31  1  0.500000  0.205022  0.913117  1.0
  O  O32  1  0.500000  0.794978  0.086883  1.0
  O  O33  1  0.000000  0.291905  0.086883  1.0
  O  O34  1  0.000000  0.708095  0.913117  1.0
  O  O35  1  0.500000  0.307155  0.243963  1.0
  O  O36  1  0.500000  0.692845  0.756037  1.0
  O  O37  1  0.000000  0.063193  0.756037  1.0
  O  O38  1  0.000000  0.936807  0.243963  1.0
  O  O39  1  0.641805  0.863411  0.346868  1.0
  O  O40  1  0.641805  0.136589  0.653132  1.0
  O  O41  1  0.141512  0.144150  0.494249  1.0
  O  O42  1  0.141805  0.483457  0.346868  1.0
  O  O43  1  0.358488  0.649901  0.505751  1.0
  O  O44  1  0.358488  0.350099  0.494249  1.0
  O  O45  1  0.858488  0.855850  0.505751  1.0
  O  O46  1  0.858488  0.144150  0.494249  1.0
  O  O47  1  0.641512  0.350099  0.494249  1.0
  O  O48  1  0.641512  0.649901  0.505751  1.0
  O  O49  1  0.151062  0.646207  0.124935  1.0
  O  O50  1  0.151062  0.353793  0.875065  1.0
  O  O51  1  0.348938  0.521273  0.875065  1.0
  O  O52  1  0.141512  0.855850  0.505751  1.0
  O  O53  1  0.848938  0.353793  0.875065  1.0
  O  O54  1  0.848938  0.646207  0.124935  1.0
  O  O55  1  0.651062  0.478727  0.124935  1.0
  O  O56  1  0.651062  0.521273  0.875065  1.0
  O  O57  1  0.141805  0.516543  0.653132  1.0
  O  O58  1  0.858195  0.516543  0.653132  1.0
