# generated using pymatgen
data_V(CO3)2
_symmetry_space_group_name_H-M   'P 1'
_cell_length_a   4.81066918
_cell_length_b   6.04867240
_cell_length_c   4.81066964
_cell_angle_alpha   113.43217545
_cell_angle_beta   59.99999846
_cell_angle_gamma   113.43217138
_symmetry_Int_Tables_number   1
_chemical_formula_structural   V(CO3)2
_chemical_formula_sum   'V1 C2 O6'
_cell_volume   107.69165361
_cell_formula_units_Z   1
loop_
 _symmetry_equiv_pos_site_id
 _symmetry_equiv_pos_as_xyz
  1  'x, y, z'
loop_
 _atom_site_type_symbol
 _atom_site_label
 _atom_site_symmetry_multiplicity
 _atom_site_fract_x
 _atom_site_fract_y
 _atom_site_fract_z
 _atom_site_occupancy
  V  V1  1  0.000000  0.000000  0.000000  1.0
  C  C2  1  0.600041  0.800124  0.600041  1.0
  C  C3  1  0.399959  0.199876  0.399959  1.0
  O  O4  1  0.305724  0.794339  0.656960  1.0
  O  O5  1  0.343040  0.205661  0.168345  1.0
  O  O6  1  0.168345  0.205661  0.694276  1.0
  O  O7  1  0.831655  0.794339  0.305724  1.0
  O  O8  1  0.656960  0.794339  0.831655  1.0
  O  O9  1  0.694276  0.205661  0.343040  1.0
