# generated using pymatgen
data_Ca5Al2(SiN4)2
_symmetry_space_group_name_H-M   'P 1'
_cell_length_a   9.29502987
_cell_length_b   6.17776641
_cell_length_c   15.56467290
_cell_angle_alpha   90.00000000
_cell_angle_beta   90.00000000
_cell_angle_gamma   90.00000000
_symmetry_Int_Tables_number   1
_chemical_formula_structural   Ca5Al2(SiN4)2
_chemical_formula_sum   'Ca20 Al8 Si8 N32'
_cell_volume   893.76279243
_cell_formula_units_Z   4
loop_
 _symmetry_equiv_pos_site_id
 _symmetry_equiv_pos_as_xyz
  1  'x, y, z'
loop_
 _atom_site_type_symbol
 _atom_site_label
 _atom_site_symmetry_multiplicity
 _atom_site_fract_x
 _atom_site_fract_y
 _atom_site_fract_z
 _atom_site_occupancy
  Ca  Ca1  1  0.301783  0.171121  0.104011  1.0
  Ca  Ca2  1  0.198217  0.328879  0.604011  1.0
  Ca  Ca3  1  0.801783  0.328879  0.895989  1.0
  Ca  Ca4  1  0.698217  0.171121  0.395989  1.0
  Ca  Ca5  1  0.698217  0.828879  0.895989  1.0
  Ca  Ca6  1  0.801783  0.671121  0.395989  1.0
  Ca  Ca7  1  0.198217  0.671121  0.104011  1.0
  Ca  Ca8  1  0.301783  0.828879  0.604011  1.0
  Ca  Ca9  1  0.000000  0.365286  0.250000  1.0
  Ca  Ca10  1  0.500000  0.134716  0.750000  1.0
  Ca  Ca11  1  0.000000  0.634715  0.750000  1.0
  Ca  Ca12  1  0.500000  0.865286  0.250000  1.0
  Ca  Ca13  1  0.359054  0.125991  0.425311  1.0
  Ca  Ca14  1  0.140946  0.374010  0.925311  1.0
  Ca  Ca15  1  0.859054  0.374010  0.574689  1.0
  Ca  Ca16  1  0.640947  0.125991  0.074689  1.0
  Ca  Ca17  1  0.640947  0.874010  0.574689  1.0
  Ca  Ca18  1  0.859054  0.625991  0.074689  1.0
  Ca  Ca19  1  0.140946  0.625991  0.425311  1.0
  Ca  Ca20  1  0.359054  0.874010  0.925311  1.0
  Al  Al21  1  0.354801  0.411411  0.263477  1.0
  Al  Al22  1  0.145199  0.088587  0.763477  1.0
  Al  Al23  1  0.854801  0.088587  0.736523  1.0
  Al  Al24  1  0.645199  0.411411  0.236523  1.0
  Al  Al25  1  0.645199  0.588587  0.736523  1.0
  Al  Al26  1  0.854801  0.911411  0.236523  1.0
  Al  Al27  1  0.145199  0.911411  0.263477  1.0
  Al  Al28  1  0.354801  0.588587  0.763477  1.0
  Si  Si29  1  0.006406  0.094691  0.070550  1.0
  Si  Si30  1  0.493594  0.405311  0.570549  1.0
  Si  Si31  1  0.506407  0.405311  0.929450  1.0
  Si  Si32  1  0.993593  0.094691  0.429450  1.0
  Si  Si33  1  0.993593  0.905310  0.929450  1.0
  Si  Si34  1  0.506407  0.594689  0.429450  1.0
  Si  Si35  1  0.493594  0.594689  0.070550  1.0
  Si  Si36  1  0.006406  0.905310  0.570549  1.0
  N  N37  1  0.046957  0.360893  0.090563  1.0
  N  N38  1  0.453044  0.139108  0.590563  1.0
  N  N39  1  0.546957  0.139108  0.909437  1.0
  N  N40  1  0.953043  0.360893  0.409437  1.0
  N  N41  1  0.953043  0.639108  0.909437  1.0
  N  N42  1  0.546957  0.860892  0.409437  1.0
  N  N43  1  0.453044  0.860892  0.090563  1.0
  N  N44  1  0.046957  0.639108  0.590563  1.0
  N  N45  1  0.140930  0.013590  0.494574  1.0
  N  N46  1  0.359070  0.486408  0.994573  1.0
  N  N47  1  0.640930  0.486408  0.505426  1.0
  N  N48  1  0.859070  0.013590  0.005426  1.0
  N  N49  1  0.859070  0.986408  0.505426  1.0
  N  N50  1  0.640930  0.513592  0.005426  1.0
  N  N51  1  0.359070  0.513592  0.494574  1.0
  N  N52  1  0.140930  0.986408  0.994573  1.0
  N  N53  1  0.277686  0.134615  0.268014  1.0
  N  N54  1  0.222314  0.365385  0.768013  1.0
  N  N55  1  0.777687  0.365385  0.731987  1.0
  N  N56  1  0.722314  0.134615  0.231986  1.0
  N  N57  1  0.722314  0.865386  0.731987  1.0
  N  N58  1  0.777687  0.634615  0.231986  1.0
  N  N59  1  0.222314  0.634615  0.268014  1.0
  N  N60  1  0.277686  0.865386  0.768013  1.0
  N  N61  1  0.480431  0.427936  0.161408  1.0
  N  N62  1  0.019569  0.072064  0.661408  1.0
  N  N63  1  0.980430  0.072064  0.838593  1.0
  N  N64  1  0.519569  0.427936  0.338593  1.0
  N  N65  1  0.519569  0.572066  0.838593  1.0
  N  N66  1  0.980430  0.927935  0.338593  1.0
  N  N67  1  0.019569  0.927935  0.161408  1.0
  N  N68  1  0.480431  0.572066  0.661408  1.0
