# generated using pymatgen
data_Ho2Ge2O7
_symmetry_space_group_name_H-M   'P 1'
_cell_length_a   5.76875432
_cell_length_b   5.03012950
_cell_length_c   5.76875432
_cell_angle_alpha   82.60616800
_cell_angle_beta   74.64249912
_cell_angle_gamma   97.39383200
_symmetry_Int_Tables_number   1
_chemical_formula_structural   Ho2Ge2O7
_chemical_formula_sum   'Ho2 Ge2 O7'
_cell_volume   157.73982125
_cell_formula_units_Z   1
loop_
 _symmetry_equiv_pos_site_id
 _symmetry_equiv_pos_as_xyz
  1  'x, y, z'
loop_
 _atom_site_type_symbol
 _atom_site_label
 _atom_site_symmetry_multiplicity
 _atom_site_fract_x
 _atom_site_fract_y
 _atom_site_fract_z
 _atom_site_occupancy
  Ho  Ho1  1  0.306388  0.500000  0.306388  1.0
  Ho  Ho2  1  0.693613  0.500000  0.693613  1.0
  Ge  Ge3  1  0.230932  0.909349  0.769068  1.0
  Ge  Ge4  1  0.769068  0.090651  0.230932  1.0
  O  O5  1  0.399293  0.712557  0.919513  1.0
  O  O6  1  0.080487  0.712557  0.600707  1.0
  O  O7  1  0.402453  0.223236  0.597547  1.0
  O  O8  1  0.597547  0.776764  0.402453  1.0
  O  O9  1  0.000000  0.000000  0.000000  1.0
  O  O10  1  0.600707  0.287443  0.080487  1.0
  O  O11  1  0.919513  0.287443  0.399293  1.0
