# generated using pymatgen
data_K3B17
_symmetry_space_group_name_H-M   'P 1'
_cell_length_a   8.49049036
_cell_length_b   6.00368342
_cell_length_c   13.30794971
_cell_angle_alpha   76.96374172
_cell_angle_beta   71.39749961
_cell_angle_gamma   44.99999892
_symmetry_Int_Tables_number   1
_chemical_formula_structural   K3B17
_chemical_formula_sum   'K6 B34'
_cell_volume   454.61373437
_cell_formula_units_Z   2
loop_
 _symmetry_equiv_pos_site_id
 _symmetry_equiv_pos_as_xyz
  1  'x, y, z'
loop_
 _atom_site_type_symbol
 _atom_site_label
 _atom_site_symmetry_multiplicity
 _atom_site_fract_x
 _atom_site_fract_y
 _atom_site_fract_z
 _atom_site_occupancy
  K  K1  1  0.250000  0.500000  0.500000  1.0
  K  K2  1  0.417451  0.500000  0.165099  1.0
  K  K3  1  0.082549  0.500000  0.834901  1.0
  K  K4  1  0.917451  0.500000  0.165099  1.0
  K  K5  1  0.750000  0.500000  0.500000  1.0
  K  K6  1  0.582549  0.500000  0.834901  1.0
  B  B7  1  0.151910  0.000000  0.000704  1.0
  B  B8  1  0.348090  0.000000  0.999296  1.0
  B  B9  1  0.186757  0.000000  0.328056  1.0
  B  B10  1  0.014814  0.000000  0.671944  1.0
  B  B11  1  0.454071  0.000000  0.091858  1.0
  B  B12  1  0.384951  0.000000  0.230097  1.0
  B  B13  1  0.284697  0.000000  0.430605  1.0
  B  B14  1  0.215303  0.000000  0.569395  1.0
  B  B15  1  0.348090  0.304523  0.999296  1.0
  B  B16  1  0.186757  0.298428  0.328056  1.0
  B  B17  1  0.151910  0.695477  0.000704  1.0
  B  B18  1  0.115049  0.000000  0.769903  1.0
  B  B19  1  0.045929  0.000000  0.908142  1.0
  B  B20  1  0.014814  0.298428  0.671944  1.0
  B  B21  1  0.652613  0.000000  0.999296  1.0
  B  B22  1  0.485186  0.000000  0.328056  1.0
  B  B23  1  0.313243  0.000000  0.671944  1.0
  B  B24  1  0.847387  0.000000  0.000704  1.0
  B  B25  1  0.678419  0.000000  0.340435  1.0
  B  B26  1  0.518855  0.000000  0.659565  1.0
  B  B27  1  0.957950  0.000000  0.084100  1.0
  B  B28  1  0.784194  0.000000  0.431610  1.0
  B  B29  1  0.715806  0.000000  0.568390  1.0
  B  B30  1  0.847387  0.304523  0.000704  1.0
  B  B31  1  0.678419  0.302726  0.340435  1.0
  B  B32  1  0.518855  0.302726  0.659565  1.0
  B  B33  1  0.652613  0.695477  0.999296  1.0
  B  B34  1  0.485186  0.701572  0.328056  1.0
  B  B35  1  0.313243  0.701572  0.671944  1.0
  B  B36  1  0.542050  0.000000  0.915900  1.0
  B  B37  1  0.981145  0.000000  0.340435  1.0
  B  B38  1  0.821581  0.000000  0.659565  1.0
  B  B39  1  0.981145  0.697274  0.340435  1.0
  B  B40  1  0.821581  0.697274  0.659565  1.0
