# generated using pymatgen
data_Ho2Cr2C3
_symmetry_space_group_name_H-M   'P 1'
_cell_length_a   3.35538137
_cell_length_b   5.47934313
_cell_length_c   5.55061464
_cell_angle_alpha   105.18858262
_cell_angle_beta   90.00000000
_cell_angle_gamma   107.82944862
_symmetry_Int_Tables_number   1
_chemical_formula_structural   Ho2Cr2C3
_chemical_formula_sum   'Ho2 Cr2 C3'
_cell_volume   93.39680704
_cell_formula_units_Z   1
loop_
 _symmetry_equiv_pos_site_id
 _symmetry_equiv_pos_as_xyz
  1  'x, y, z'
loop_
 _atom_site_type_symbol
 _atom_site_label
 _atom_site_symmetry_multiplicity
 _atom_site_fract_x
 _atom_site_fract_y
 _atom_site_fract_z
 _atom_site_occupancy
  Ho  Ho1  1  0.606475  0.212950  0.816550  1.0
  Ho  Ho2  1  0.393525  0.787050  0.183450  1.0
  Cr  Cr3  1  0.843636  0.687272  0.610458  1.0
  Cr  Cr4  1  0.156364  0.312728  0.389542  1.0
  C  C5  1  0.283967  0.567933  0.731558  1.0
  C  C6  1  0.716033  0.432067  0.268442  1.0
  C  C7  1  0.000000  0.000000  0.500000  1.0
