# generated using pymatgen
data_CaMgPb
_symmetry_space_group_name_H-M   'P 1'
_cell_length_a   7.96810894
_cell_length_b   4.76715323
_cell_length_c   8.94531266
_cell_angle_alpha   90.00000000
_cell_angle_beta   90.00000000
_cell_angle_gamma   90.00000000
_symmetry_Int_Tables_number   1
_chemical_formula_structural   CaMgPb
_chemical_formula_sum   'Ca4 Mg4 Pb4'
_cell_volume   339.78945709
_cell_formula_units_Z   4
loop_
 _symmetry_equiv_pos_site_id
 _symmetry_equiv_pos_as_xyz
  1  'x, y, z'
loop_
 _atom_site_type_symbol
 _atom_site_label
 _atom_site_symmetry_multiplicity
 _atom_site_fract_x
 _atom_site_fract_y
 _atom_site_fract_z
 _atom_site_occupancy
  Ca  Ca1  1  0.980601  0.750001  0.184365  1.0
  Ca  Ca2  1  0.480600  0.750001  0.315635  1.0
  Ca  Ca3  1  0.519399  0.250000  0.684364  1.0
  Ca  Ca4  1  0.019400  0.250000  0.815635  1.0
  Mg  Mg5  1  0.643518  0.250000  0.061968  1.0
  Mg  Mg6  1  0.143517  0.250000  0.438032  1.0
  Mg  Mg7  1  0.856483  0.750001  0.561968  1.0
  Mg  Mg8  1  0.356483  0.750001  0.938032  1.0
  Pb  Pb9  1  0.263106  0.250000  0.116762  1.0
  Pb  Pb10  1  0.763106  0.250000  0.383238  1.0
  Pb  Pb11  1  0.236894  0.750001  0.616762  1.0
  Pb  Pb12  1  0.736894  0.750001  0.883237  1.0
