# generated using pymatgen
data_CaZn2
_symmetry_space_group_name_H-M   'P 1'
_cell_length_a   4.59021589
_cell_length_b   5.76867528
_cell_length_c   5.76867527
_cell_angle_alpha   79.59629414
_cell_angle_beta   66.55572147
_cell_angle_gamma   66.55572151
_symmetry_Int_Tables_number   1
_chemical_formula_structural   CaZn2
_chemical_formula_sum   'Ca2 Zn4'
_cell_volume   128.52727710
_cell_formula_units_Z   2
loop_
 _symmetry_equiv_pos_site_id
 _symmetry_equiv_pos_as_xyz
  1  'x, y, z'
loop_
 _atom_site_type_symbol
 _atom_site_label
 _atom_site_symmetry_multiplicity
 _atom_site_fract_x
 _atom_site_fract_y
 _atom_site_fract_z
 _atom_site_occupancy
  Ca  Ca1  1  0.550346  0.699654  0.199654  1.0
  Ca  Ca2  1  0.449654  0.300346  0.800346  1.0
  Zn  Zn3  1  0.164045  0.274444  0.397467  1.0
  Zn  Zn4  1  0.835955  0.725556  0.602533  1.0
  Zn  Zn5  1  0.164045  0.897467  0.774444  1.0
  Zn  Zn6  1  0.835955  0.102533  0.225556  1.0
