# generated using pymatgen
data_H4N2O3
_symmetry_space_group_name_H-M   'P 1'
_cell_length_a   8.05825241
_cell_length_b   8.05082665
_cell_length_c   10.02807179
_cell_angle_alpha   90.00000000
_cell_angle_beta   90.00000000
_cell_angle_gamma   90.00000000
_symmetry_Int_Tables_number   1
_chemical_formula_structural   H4N2O3
_chemical_formula_sum   'H32 N16 O24'
_cell_volume   650.57710658
_cell_formula_units_Z   8
loop_
 _symmetry_equiv_pos_site_id
 _symmetry_equiv_pos_as_xyz
  1  'x, y, z'
loop_
 _atom_site_type_symbol
 _atom_site_label
 _atom_site_symmetry_multiplicity
 _atom_site_fract_x
 _atom_site_fract_y
 _atom_site_fract_z
 _atom_site_occupancy
  H  H1  1  0.542980  0.560350  0.679876  1.0
  H  H2  1  0.056757  0.554747  0.679168  1.0
  H  H3  1  0.443243  0.945253  0.679168  1.0
  H  H4  1  0.943243  0.054747  0.820832  1.0
  H  H5  1  0.443243  0.554747  0.179168  1.0
  H  H6  1  0.943243  0.445253  0.320832  1.0
  H  H7  1  0.556757  0.054747  0.320832  1.0
  H  H8  1  0.056757  0.945253  0.179168  1.0
  H  H9  1  0.896001  0.080087  0.201349  1.0
  H  H10  1  0.396001  0.919913  0.298651  1.0
  H  H11  1  0.103999  0.580087  0.298651  1.0
  H  H12  1  0.556757  0.445253  0.820832  1.0
  H  H13  1  0.603999  0.419913  0.201349  1.0
  H  H14  1  0.103999  0.919913  0.798651  1.0
  H  H15  1  0.603999  0.080087  0.701349  1.0
  H  H16  1  0.896001  0.419913  0.701349  1.0
  H  H17  1  0.042980  0.439650  0.820124  1.0
  H  H18  1  0.457020  0.060350  0.820124  1.0
  H  H19  1  0.957020  0.939650  0.679876  1.0
  H  H20  1  0.457020  0.439650  0.320124  1.0
  H  H21  1  0.957020  0.560350  0.179876  1.0
  H  H22  1  0.542980  0.939650  0.179876  1.0
  H  H23  1  0.042980  0.060350  0.320124  1.0
  H  H24  1  0.396001  0.580087  0.798651  1.0
  H  H25  1  0.906155  0.596802  0.792879  1.0
  H  H26  1  0.593845  0.903198  0.792879  1.0
  H  H27  1  0.093845  0.096802  0.707121  1.0
  H  H28  1  0.593845  0.596802  0.292879  1.0
  H  H29  1  0.093845  0.403198  0.207121  1.0
  H  H30  1  0.406155  0.096802  0.207121  1.0
  H  H31  1  0.906155  0.903198  0.292879  1.0
  H  H32  1  0.406155  0.403198  0.707121  1.0
  N  N33  1  0.476202  0.496877  0.751803  1.0
  N  N34  1  0.976202  0.503123  0.748197  1.0
  N  N35  1  0.523798  0.996877  0.748197  1.0
  N  N36  1  0.023798  0.003123  0.751803  1.0
  N  N37  1  0.523798  0.503123  0.248197  1.0
  N  N38  1  0.023798  0.496877  0.251803  1.0
  N  N39  1  0.476202  0.003123  0.251803  1.0
  N  N40  1  0.976202  0.996877  0.248197  1.0
  N  N41  1  0.750000  0.250000  0.511883  1.0
  N  N42  1  0.250000  0.750000  0.988117  1.0
  N  N43  1  0.250000  0.750000  0.488117  1.0
  N  N44  1  0.750000  0.250000  0.011883  1.0
  N  N45  1  0.250000  0.250000  0.514306  1.0
  N  N46  1  0.750000  0.750000  0.985694  1.0
  N  N47  1  0.750000  0.750000  0.485694  1.0
  N  N48  1  0.250000  0.250000  0.014306  1.0
  O  O49  1  0.283551  0.617372  0.048839  1.0
  O  O50  1  0.783551  0.382628  0.451161  1.0
  O  O51  1  0.716449  0.117372  0.451161  1.0
  O  O52  1  0.716449  0.382628  0.951161  1.0
  O  O53  1  0.216449  0.617372  0.548839  1.0
  O  O54  1  0.283551  0.882628  0.548839  1.0
  O  O55  1  0.783551  0.117372  0.951161  1.0
  O  O56  1  0.750000  0.250000  0.640225  1.0
  O  O57  1  0.250000  0.750000  0.859775  1.0
  O  O58  1  0.250000  0.750000  0.359775  1.0
  O  O59  1  0.750000  0.250000  0.140225  1.0
  O  O60  1  0.618364  0.787063  0.046285  1.0
  O  O61  1  0.118364  0.212937  0.453715  1.0
  O  O62  1  0.381636  0.287063  0.453715  1.0
  O  O63  1  0.881636  0.712937  0.046285  1.0
  O  O64  1  0.381636  0.212937  0.953715  1.0
  O  O65  1  0.881636  0.787063  0.546285  1.0
  O  O66  1  0.618364  0.712937  0.546285  1.0
  O  O67  1  0.118364  0.287063  0.953715  1.0
  O  O68  1  0.250000  0.250000  0.642760  1.0
  O  O69  1  0.750000  0.750000  0.857240  1.0
  O  O70  1  0.750000  0.750000  0.357240  1.0
  O  O71  1  0.250000  0.250000  0.142760  1.0
  O  O72  1  0.216449  0.882628  0.048839  1.0
