# generated using pymatgen
data_KIO4
_symmetry_space_group_name_H-M   'P 1'
_cell_length_a   5.85724828
_cell_length_b   5.85708377
_cell_length_c   7.66889415
_cell_angle_alpha   112.44140826
_cell_angle_beta   112.44566445
_cell_angle_gamma   90.01055956
_symmetry_Int_Tables_number   1
_chemical_formula_structural   KIO4
_chemical_formula_sum   'K2 I2 O8'
_cell_volume   221.44250258
_cell_formula_units_Z   2
loop_
 _symmetry_equiv_pos_site_id
 _symmetry_equiv_pos_as_xyz
  1  'x, y, z'
loop_
 _atom_site_type_symbol
 _atom_site_label
 _atom_site_symmetry_multiplicity
 _atom_site_fract_x
 _atom_site_fract_y
 _atom_site_fract_z
 _atom_site_occupancy
  K  K1  1  0.625008  0.875005  0.250011  1.0
  K  K2  1  0.374992  0.124995  0.749989  1.0
  I  I3  1  0.874977  0.624958  0.749915  1.0
  I  I4  1  0.125023  0.375042  0.250085  1.0
  O  O5  1  0.925749  0.766757  0.594310  1.0
  O  O6  1  0.827535  0.425734  0.094286  1.0
  O  O7  1  0.266811  0.168553  0.094319  1.0
  O  O8  1  0.668554  0.327550  0.594292  1.0
  O  O9  1  0.331446  0.672450  0.405708  1.0
  O  O10  1  0.733189  0.831447  0.905681  1.0
  O  O11  1  0.172465  0.574266  0.905714  1.0
  O  O12  1  0.074251  0.233243  0.405690  1.0
