# generated using pymatgen
data_NbV3O8
_symmetry_space_group_name_H-M   'P 1'
_cell_length_a   6.52683888
_cell_length_b   6.52683957
_cell_length_c   6.68174379
_cell_angle_alpha   74.61959005
_cell_angle_beta   105.38040732
_cell_angle_gamma   145.87667322
_symmetry_Int_Tables_number   1
_chemical_formula_structural   NbV3O8
_chemical_formula_sum   'Nb1 V3 O8'
_cell_volume   153.40787409
_cell_formula_units_Z   1
loop_
 _symmetry_equiv_pos_site_id
 _symmetry_equiv_pos_as_xyz
  1  'x, y, z'
loop_
 _atom_site_type_symbol
 _atom_site_label
 _atom_site_symmetry_multiplicity
 _atom_site_fract_x
 _atom_site_fract_y
 _atom_site_fract_z
 _atom_site_occupancy
  Nb  Nb1  1  0.696246  0.303754  0.272287  1.0
  V  V2  1  0.399570  0.600430  0.316375  1.0
  V  V3  1  0.601121  0.398879  0.684861  1.0
  V  V4  1  0.305897  0.694103  0.733881  1.0
  O  O5  1  0.135718  0.864282  0.698672  1.0
  O  O6  1  0.232967  0.767033  0.346457  1.0
  O  O7  1  0.360532  0.639468  0.993992  1.0
  O  O8  1  0.442175  0.557825  0.629615  1.0
  O  O9  1  0.564651  0.435349  0.376034  1.0
  O  O10  1  0.634288  0.365712  0.993280  1.0
  O  O11  1  0.764200  0.235800  0.656536  1.0
  O  O12  1  0.862636  0.137364  0.298011  1.0
