# generated using pymatgen
data_NbS2
_symmetry_space_group_name_H-M   'P 1'
_cell_length_a   3.38364811
_cell_length_b   3.36963963
_cell_length_c   6.31126797
_cell_angle_alpha   90.00000001
_cell_angle_beta   89.89354134
_cell_angle_gamma   119.86313417
_symmetry_Int_Tables_number   1
_chemical_formula_structural   NbS2
_chemical_formula_sum   'Nb1 S2'
_cell_volume   62.40396875
_cell_formula_units_Z   1
loop_
 _symmetry_equiv_pos_site_id
 _symmetry_equiv_pos_as_xyz
  1  'x, y, z'
loop_
 _atom_site_type_symbol
 _atom_site_label
 _atom_site_symmetry_multiplicity
 _atom_site_fract_x
 _atom_site_fract_y
 _atom_site_fract_z
 _atom_site_occupancy
  Nb  Nb1  1  0.000000  0.000000  0.000000  1.0
  S  S2  1  0.334184  0.667092  0.245962  1.0
  S  S3  1  0.665816  0.332908  0.754038  1.0
