# generated using pymatgen
data_CaSn
_symmetry_space_group_name_H-M   'P 1'
_cell_length_a   4.82537620
_cell_length_b   4.38830972
_cell_length_c   6.28221862
_cell_angle_alpha   90.00000000
_cell_angle_beta   112.58479164
_cell_angle_gamma   90.00000000
_symmetry_Int_Tables_number   1
_chemical_formula_structural   CaSn
_chemical_formula_sum   'Ca2 Sn2'
_cell_volume   122.82593105
_cell_formula_units_Z   2
loop_
 _symmetry_equiv_pos_site_id
 _symmetry_equiv_pos_as_xyz
  1  'x, y, z'
loop_
 _atom_site_type_symbol
 _atom_site_label
 _atom_site_symmetry_multiplicity
 _atom_site_fract_x
 _atom_site_fract_y
 _atom_site_fract_z
 _atom_site_occupancy
  Ca  Ca1  1  0.134454  0.750000  0.268909  1.0
  Ca  Ca2  1  0.865546  0.250000  0.731091  1.0
  Sn  Sn3  1  0.414783  0.750000  0.829567  1.0
  Sn  Sn4  1  0.585217  0.250000  0.170433  1.0
