# generated using pymatgen
data_Ba2ZrS4
_symmetry_space_group_name_H-M   'P 1'
_cell_length_a   5.01089135
_cell_length_b   5.01089136
_cell_length_c   8.69924206
_cell_angle_alpha   106.73869669
_cell_angle_beta   106.73869670
_cell_angle_gamma   89.99999997
_symmetry_Int_Tables_number   1
_chemical_formula_structural   Ba2ZrS4
_chemical_formula_sum   'Ba2 Zr1 S4'
_cell_volume   199.49010917
_cell_formula_units_Z   1
loop_
 _symmetry_equiv_pos_site_id
 _symmetry_equiv_pos_as_xyz
  1  'x, y, z'
loop_
 _atom_site_type_symbol
 _atom_site_label
 _atom_site_symmetry_multiplicity
 _atom_site_fract_x
 _atom_site_fract_y
 _atom_site_fract_z
 _atom_site_occupancy
  Ba  Ba1  1  0.641709  0.641709  0.283419  1.0
  Ba  Ba2  1  0.358291  0.358291  0.716581  1.0
  Zr  Zr3  1  0.000000  0.000000  0.000000  1.0
  S  S4  1  0.000000  0.500000  0.000000  1.0
  S  S5  1  0.500000  0.000000  0.000000  1.0
  S  S6  1  0.836759  0.836759  0.673519  1.0
  S  S7  1  0.163241  0.163241  0.326481  1.0
