# generated using pymatgen
data_Ge3N2
_symmetry_space_group_name_H-M   'P 1'
_cell_length_a   7.08758313
_cell_length_b   7.08758313
_cell_length_c   7.08758313
_cell_angle_alpha   90.00000000
_cell_angle_beta   90.00000000
_cell_angle_gamma   90.00000000
_symmetry_Int_Tables_number   1
_chemical_formula_structural   Ge3N2
_chemical_formula_sum   'Ge12 N8'
_cell_volume   356.03647884
_cell_formula_units_Z   4
loop_
 _symmetry_equiv_pos_site_id
 _symmetry_equiv_pos_as_xyz
  1  'x, y, z'
loop_
 _atom_site_type_symbol
 _atom_site_label
 _atom_site_symmetry_multiplicity
 _atom_site_fract_x
 _atom_site_fract_y
 _atom_site_fract_z
 _atom_site_occupancy
  Ge  Ge1  1  0.823118  0.823118  0.500022  1.0
  Ge  Ge2  1  0.176882  0.176882  0.500022  1.0
  Ge  Ge3  1  0.176882  0.823118  0.499978  1.0
  Ge  Ge4  1  0.823118  0.176882  0.499978  1.0
  Ge  Ge5  1  0.499978  0.823118  0.176882  1.0
  Ge  Ge6  1  0.499978  0.176882  0.823118  1.0
  Ge  Ge7  1  0.500022  0.176882  0.176882  1.0
  Ge  Ge8  1  0.500022  0.823118  0.823118  1.0
  Ge  Ge9  1  0.823118  0.499978  0.176882  1.0
  Ge  Ge10  1  0.176882  0.499978  0.823118  1.0
  Ge  Ge11  1  0.823118  0.500022  0.823118  1.0
  Ge  Ge12  1  0.176882  0.500022  0.176882  1.0
  N  N13  1  0.722349  0.722349  0.277651  1.0
  N  N14  1  0.277651  0.277651  0.277651  1.0
  N  N15  1  0.277651  0.722349  0.722349  1.0
  N  N16  1  0.722349  0.277651  0.722349  1.0
  N  N17  1  0.277344  0.277344  0.722656  1.0
  N  N18  1  0.722656  0.722656  0.722656  1.0
  N  N19  1  0.722656  0.277344  0.277344  1.0
  N  N20  1  0.277344  0.722656  0.277344  1.0
