# generated using pymatgen
data_Sm2Zr2O7
_symmetry_space_group_name_H-M   'P 1'
_cell_length_a   7.57949201
_cell_length_b   7.57949201
_cell_length_c   7.57949201
_cell_angle_alpha   59.99999997
_cell_angle_beta   59.99999997
_cell_angle_gamma   59.99999995
_symmetry_Int_Tables_number   1
_chemical_formula_structural   Sm2Zr2O7
_chemical_formula_sum   'Sm4 Zr4 O14'
_cell_volume   307.89688860
_cell_formula_units_Z   2
loop_
 _symmetry_equiv_pos_site_id
 _symmetry_equiv_pos_as_xyz
  1  'x, y, z'
loop_
 _atom_site_type_symbol
 _atom_site_label
 _atom_site_symmetry_multiplicity
 _atom_site_fract_x
 _atom_site_fract_y
 _atom_site_fract_z
 _atom_site_occupancy
  Sm  Sm1  1  0.500000  0.000000  0.500000  1.0
  Sm  Sm2  1  0.000000  0.500000  0.500000  1.0
  Sm  Sm3  1  0.500000  0.500000  0.000000  1.0
  Sm  Sm4  1  0.500000  0.500000  0.500000  1.0
  Zr  Zr5  1  0.000000  0.500000  0.000000  1.0
  Zr  Zr6  1  0.500000  0.000000  0.000000  1.0
  Zr  Zr7  1  0.000000  0.000000  0.500000  1.0
  Zr  Zr8  1  0.000000  0.000000  0.000000  1.0
  O  O9  1  0.625000  0.625000  0.625000  1.0
  O  O10  1  0.375000  0.375000  0.375000  1.0
  O  O11  1  0.337519  0.912481  0.912481  1.0
  O  O12  1  0.087519  0.662481  0.662481  1.0
  O  O13  1  0.912481  0.337519  0.912481  1.0
  O  O14  1  0.912481  0.912481  0.337519  1.0
  O  O15  1  0.337519  0.337519  0.912481  1.0
  O  O16  1  0.337519  0.912481  0.337519  1.0
  O  O17  1  0.912481  0.337519  0.337519  1.0
  O  O18  1  0.662481  0.662481  0.087519  1.0
  O  O19  1  0.087519  0.087519  0.662481  1.0
  O  O20  1  0.662481  0.087519  0.087519  1.0
  O  O21  1  0.662481  0.087519  0.662481  1.0
  O  O22  1  0.087519  0.662481  0.087519  1.0
