# generated using pymatgen
data_TmNbRu2
_symmetry_space_group_name_H-M   'P 1'
_cell_length_a   4.60956625
_cell_length_b   4.60954297
_cell_length_c   4.60956700
_cell_angle_alpha   60.00010555
_cell_angle_beta   59.99982645
_cell_angle_gamma   60.00010474
_symmetry_Int_Tables_number   1
_chemical_formula_structural   TmNbRu2
_chemical_formula_sum   'Tm1 Nb1 Ru2'
_cell_volume   69.25692158
_cell_formula_units_Z   1
loop_
 _symmetry_equiv_pos_site_id
 _symmetry_equiv_pos_as_xyz
  1  'x, y, z'
loop_
 _atom_site_type_symbol
 _atom_site_label
 _atom_site_symmetry_multiplicity
 _atom_site_fract_x
 _atom_site_fract_y
 _atom_site_fract_z
 _atom_site_occupancy
  Tm  Tm1  1  0.749999  0.749999  0.750000  1.0
  Nb  Nb2  1  0.249999  0.249999  0.249999  1.0
  Ru  Ru3  1  0.000001  0.999999  0.000000  1.0
  Ru  Ru4  1  0.499999  0.500001  0.499999  1.0
