# generated using pymatgen
data_Cs2CN2
_symmetry_space_group_name_H-M   'P 1'
_cell_length_a   7.11305233
_cell_length_b   6.08435284
_cell_length_c   12.98505635
_cell_angle_alpha   82.94804180
_cell_angle_beta   91.58272099
_cell_angle_gamma   127.91964251
_symmetry_Int_Tables_number   1
_chemical_formula_structural   Cs2CN2
_chemical_formula_sum   'Cs6 C3 N6'
_cell_volume   439.14891205
_cell_formula_units_Z   3
loop_
 _symmetry_equiv_pos_site_id
 _symmetry_equiv_pos_as_xyz
  1  'x, y, z'
loop_
 _atom_site_type_symbol
 _atom_site_label
 _atom_site_symmetry_multiplicity
 _atom_site_fract_x
 _atom_site_fract_y
 _atom_site_fract_z
 _atom_site_occupancy
  Cs  Cs1  1  0.846266  0.172747  0.417119  1.0
  Cs  Cs2  1  0.153734  0.827253  0.582881  1.0
  Cs  Cs3  1  0.504020  0.499642  0.248376  1.0
  Cs  Cs4  1  0.495980  0.500358  0.751624  1.0
  Cs  Cs5  1  0.825107  0.163322  0.915338  1.0
  Cs  Cs6  1  0.174893  0.836678  0.084662  1.0
  C  C7  1  0.500000  0.500000  0.000000  1.0
  C  C8  1  0.823411  0.163462  0.666821  1.0
  C  C9  1  0.176589  0.836538  0.333179  1.0
  N  N10  1  0.668349  0.487550  0.998629  1.0
  N  N11  1  0.331651  0.512450  0.001371  1.0
  N  N12  1  0.990554  0.149399  0.662376  1.0
  N  N13  1  0.009446  0.850601  0.337624  1.0
  N  N14  1  0.343461  0.822251  0.328517  1.0
  N  N15  1  0.656539  0.177749  0.671483  1.0
