# generated using pymatgen
data_Li2HfO3
_symmetry_space_group_name_H-M   'P 1'
_cell_length_a   5.26663165
_cell_length_b   5.26663165
_cell_length_c   5.41137442
_cell_angle_alpha   78.47069136
_cell_angle_beta   101.52930864
_cell_angle_gamma   62.16081432
_symmetry_Int_Tables_number   1
_chemical_formula_structural   Li2HfO3
_chemical_formula_sum   'Li4 Hf2 O6'
_cell_volume   122.37440440
_cell_formula_units_Z   2
loop_
 _symmetry_equiv_pos_site_id
 _symmetry_equiv_pos_as_xyz
  1  'x, y, z'
loop_
 _atom_site_type_symbol
 _atom_site_label
 _atom_site_symmetry_multiplicity
 _atom_site_fract_x
 _atom_site_fract_y
 _atom_site_fract_z
 _atom_site_occupancy
  Li  Li1  1  0.565083  0.586532  0.493964  1.0
  Li  Li2  1  0.253403  0.262947  0.491285  1.0
  Li  Li3  1  0.413468  0.434917  0.993964  1.0
  Li  Li4  1  0.737053  0.746597  0.991285  1.0
  Hf  Hf5  1  0.900370  0.918074  0.490256  1.0
  Hf  Hf6  1  0.081926  0.099630  0.990256  1.0
  O  O7  1  0.294040  0.856980  0.755608  1.0
  O  O8  1  0.143020  0.705960  0.255608  1.0
  O  O9  1  0.990393  0.509632  0.741646  1.0
  O  O10  1  0.688879  0.160402  0.725042  1.0
  O  O11  1  0.490368  0.009607  0.241646  1.0
  O  O12  1  0.839598  0.311121  0.225042  1.0
