# generated using pymatgen
data_Li2GePbS4
_symmetry_space_group_name_H-M   'P 1'
_cell_length_a   6.10099481
_cell_length_b   6.10099481
_cell_length_c   6.10099482
_cell_angle_alpha   99.19708175
_cell_angle_beta   114.83992529
_cell_angle_gamma   114.83992529
_symmetry_Int_Tables_number   1
_chemical_formula_structural   Li2GePbS4
_chemical_formula_sum   'Li2 Ge1 Pb1 S4'
_cell_volume   170.71237252
_cell_formula_units_Z   1
loop_
 _symmetry_equiv_pos_site_id
 _symmetry_equiv_pos_as_xyz
  1  'x, y, z'
loop_
 _atom_site_type_symbol
 _atom_site_label
 _atom_site_symmetry_multiplicity
 _atom_site_fract_x
 _atom_site_fract_y
 _atom_site_fract_z
 _atom_site_occupancy
  Li  Li1  1  0.500000  0.250000  0.750000  1.0
  Li  Li2  1  0.500000  0.750000  0.250000  1.0
  Ge  Ge3  1  0.000000  0.500000  0.500000  1.0
  Pb  Pb4  1  0.000000  0.000000  0.000000  1.0
  S  S5  1  0.605985  0.465803  0.465803  1.0
  S  S6  1  0.000000  0.534197  0.140181  1.0
  S  S7  1  0.000000  0.140181  0.534197  1.0
  S  S8  1  0.394015  0.859819  0.859819  1.0
