# generated using pymatgen
data_Yb(As2Rh3)2
_symmetry_space_group_name_H-M   'P 1'
_cell_length_a   7.29181985
_cell_length_b   7.29181985
_cell_length_c   3.80897426
_cell_angle_alpha   90.00000000
_cell_angle_beta   90.00000000
_cell_angle_gamma   119.99999997
_symmetry_Int_Tables_number   1
_chemical_formula_structural   Yb(As2Rh3)2
_chemical_formula_sum   'Yb1 As4 Rh6'
_cell_volume   175.39230303
_cell_formula_units_Z   1
loop_
 _symmetry_equiv_pos_site_id
 _symmetry_equiv_pos_as_xyz
  1  'x, y, z'
loop_
 _atom_site_type_symbol
 _atom_site_label
 _atom_site_symmetry_multiplicity
 _atom_site_fract_x
 _atom_site_fract_y
 _atom_site_fract_z
 _atom_site_occupancy
  Yb  Yb1  1  0.000000  0.000000  0.000000  1.0
  As  As2  1  0.811735  0.623469  0.500000  1.0
  As  As3  1  0.333333  0.666667  0.000000  1.0
  As  As4  1  0.376531  0.188265  0.500000  1.0
  As  As5  1  0.811735  0.188265  0.500000  1.0
  Rh  Rh6  1  0.534950  0.069900  0.000000  1.0
  Rh  Rh7  1  0.602008  0.801004  0.500000  1.0
  Rh  Rh8  1  0.198996  0.397992  0.500000  1.0
  Rh  Rh9  1  0.534950  0.465050  0.000000  1.0
  Rh  Rh10  1  0.198996  0.801004  0.500000  1.0
  Rh  Rh11  1  0.930100  0.465050  0.000000  1.0
