# generated using pymatgen
data_InPS4
_symmetry_space_group_name_H-M   'P 1'
_cell_length_a   5.77212914
_cell_length_b   5.77212914
_cell_length_c   6.17524933
_cell_angle_alpha   117.86306489
_cell_angle_beta   117.86306493
_cell_angle_gamma   89.99999996
_symmetry_Int_Tables_number   1
_chemical_formula_structural   InPS4
_chemical_formula_sum   'In1 P1 S4'
_cell_volume   154.39681219
_cell_formula_units_Z   1
loop_
 _symmetry_equiv_pos_site_id
 _symmetry_equiv_pos_as_xyz
  1  'x, y, z'
loop_
 _atom_site_type_symbol
 _atom_site_label
 _atom_site_symmetry_multiplicity
 _atom_site_fract_x
 _atom_site_fract_y
 _atom_site_fract_z
 _atom_site_occupancy
  In  In1  1  0.000000  0.000000  0.000000  1.0
  P  P2  1  0.750000  0.250000  0.500000  1.0
  S  S3  1  0.437101  0.363232  0.263601  1.0
  S  S4  1  0.826500  0.900368  0.263601  1.0
  S  S5  1  0.099632  0.562899  0.736399  1.0
  S  S6  1  0.636768  0.173500  0.736399  1.0
