# generated using pymatgen
data_ZnBi3
_symmetry_space_group_name_H-M   'P 1'
_cell_length_a   5.79204992
_cell_length_b   5.79204992
_cell_length_c   5.79204992
_cell_angle_alpha   128.36071056
_cell_angle_beta   128.36071056
_cell_angle_gamma   76.04141566
_symmetry_Int_Tables_number   1
_chemical_formula_structural   ZnBi3
_chemical_formula_sum   'Zn1 Bi3'
_cell_volume   116.15073547
_cell_formula_units_Z   1
loop_
 _symmetry_equiv_pos_site_id
 _symmetry_equiv_pos_as_xyz
  1  'x, y, z'
loop_
 _atom_site_type_symbol
 _atom_site_label
 _atom_site_symmetry_multiplicity
 _atom_site_fract_x
 _atom_site_fract_y
 _atom_site_fract_z
 _atom_site_occupancy
  Zn  Zn1  1  0.000000  0.000000  0.000000  1.0
  Bi  Bi2  1  0.749998  0.249999  0.499999  1.0
  Bi  Bi3  1  0.249999  0.749998  0.499999  1.0
  Bi  Bi4  1  0.500000  0.500000  0.000000  1.0
