# generated using pymatgen
data_V3FeO8
_symmetry_space_group_name_H-M   'P 1'
_cell_length_a   5.56451357
_cell_length_b   7.36062321
_cell_length_c   5.47957455
_cell_angle_alpha   89.82316502
_cell_angle_beta   90.25728774
_cell_angle_gamma   90.27697459
_symmetry_Int_Tables_number   1
_chemical_formula_structural   V3FeO8
_chemical_formula_sum   'V3 Fe1 O8'
_cell_volume   224.42805196
_cell_formula_units_Z   1
loop_
 _symmetry_equiv_pos_site_id
 _symmetry_equiv_pos_as_xyz
  1  'x, y, z'
loop_
 _atom_site_type_symbol
 _atom_site_label
 _atom_site_symmetry_multiplicity
 _atom_site_fract_x
 _atom_site_fract_y
 _atom_site_fract_z
 _atom_site_occupancy
  V  V1  1  0.071711  0.122040  0.003869  1.0
  V  V2  1  0.427795  0.626042  0.503466  1.0
  V  V3  1  0.574595  0.375783  0.002621  1.0
  Fe  Fe4  1  0.927828  0.875039  0.503064  1.0
  O  O5  1  0.031542  0.073502  0.312689  1.0
  O  O6  1  0.127164  0.675426  0.438409  1.0
  O  O7  1  0.370975  0.172903  0.938910  1.0
  O  O8  1  0.467882  0.576293  0.811739  1.0
  O  O9  1  0.522550  0.440349  0.334919  1.0
  O  O10  1  0.606261  0.814866  0.432262  1.0
  O  O11  1  0.897590  0.311620  0.933027  1.0
  O  O12  1  0.974108  0.936135  0.833423  1.0
