# generated using pymatgen
data_Sb6O13
_symmetry_space_group_name_H-M   'P 1'
_cell_length_a   7.39915456
_cell_length_b   14.82824586
_cell_length_c   12.83142757
_cell_angle_alpha   30.07880858
_cell_angle_beta   53.80650177
_cell_angle_gamma   59.26996407
_symmetry_Int_Tables_number   1
_chemical_formula_structural   Sb6O13
_chemical_formula_sum   'Sb12 O26'
_cell_volume   569.42707695
_cell_formula_units_Z   2
loop_
 _symmetry_equiv_pos_site_id
 _symmetry_equiv_pos_as_xyz
  1  'x, y, z'
loop_
 _atom_site_type_symbol
 _atom_site_label
 _atom_site_symmetry_multiplicity
 _atom_site_fract_x
 _atom_site_fract_y
 _atom_site_fract_z
 _atom_site_occupancy
  Sb  Sb1  1  0.499874  0.000000  0.021391  1.0
  Sb  Sb2  1  0.000000  0.250000  0.500000  1.0
  Sb  Sb3  1  0.000000  0.750000  0.000000  1.0
  Sb  Sb4  1  0.500126  0.500000  0.978609  1.0
  Sb  Sb5  1  0.500000  0.250000  0.500000  1.0
  Sb  Sb6  1  0.489898  0.500000  0.501952  1.0
  Sb  Sb7  1  0.003968  0.000000  0.495912  1.0
  Sb  Sb8  1  0.500000  0.250000  0.000000  1.0
  Sb  Sb9  1  0.500000  0.750000  0.500000  1.0
  Sb  Sb10  1  0.996032  0.500000  0.504088  1.0
  Sb  Sb11  1  0.510102  0.000000  0.498048  1.0
  Sb  Sb12  1  0.500000  0.750000  0.000000  1.0
  O  O13  1  0.183440  0.197552  0.178877  1.0
  O  O14  1  0.172534  0.500000  0.119654  1.0
  O  O15  1  0.171353  0.000000  0.584066  1.0
  O  O16  1  0.556128  0.204599  0.179289  1.0
  O  O17  1  0.170162  0.306521  0.560964  1.0
  O  O18  1  0.170162  0.693479  0.174007  1.0
  O  O19  1  0.419180  0.198541  0.428493  1.0
  O  O20  1  0.568666  0.500000  0.178513  1.0
  O  O21  1  0.431334  0.000000  0.821487  1.0
  O  O22  1  0.179180  0.500000  0.568175  1.0
  O  O23  1  0.580820  0.301459  0.571507  1.0
  O  O24  1  0.580820  0.698541  0.174426  1.0
  O  O25  1  0.829838  0.193479  0.439036  1.0
  O  O26  1  0.183440  0.802448  0.573981  1.0
  O  O27  1  0.443872  0.295401  0.820711  1.0
  O  O28  1  0.443872  0.704599  0.411513  1.0
  O  O29  1  0.563185  0.000000  0.169122  1.0
  O  O30  1  0.828647  0.500000  0.415934  1.0
  O  O31  1  0.436815  0.500000  0.830878  1.0
  O  O32  1  0.556128  0.795401  0.588487  1.0
  O  O33  1  0.816560  0.302448  0.821123  1.0
  O  O34  1  0.816560  0.697552  0.426019  1.0
  O  O35  1  0.419180  0.801459  0.825574  1.0
  O  O36  1  0.820820  0.000000  0.431825  1.0
  O  O37  1  0.829838  0.806521  0.825993  1.0
  O  O38  1  0.827466  0.000000  0.880346  1.0
