# generated using pymatgen
data_Cs2WO4
_symmetry_space_group_name_H-M   'P 1'
_cell_length_a   6.70126959
_cell_length_b   7.62815346
_cell_length_c   8.44223952
_cell_angle_alpha   66.74720939
_cell_angle_beta   90.00000000
_cell_angle_gamma   63.94422638
_symmetry_Int_Tables_number   1
_chemical_formula_structural   Cs2WO4
_chemical_formula_sum   'Cs4 W2 O8'
_cell_volume   348.25154828
_cell_formula_units_Z   2
loop_
 _symmetry_equiv_pos_site_id
 _symmetry_equiv_pos_as_xyz
  1  'x, y, z'
loop_
 _atom_site_type_symbol
 _atom_site_label
 _atom_site_symmetry_multiplicity
 _atom_site_fract_x
 _atom_site_fract_y
 _atom_site_fract_z
 _atom_site_occupancy
  Cs  Cs1  1  0.512886  0.974229  0.239997  1.0
  Cs  Cs2  1  0.156239  0.687521  0.742496  1.0
  Cs  Cs3  1  0.843761  0.312479  0.257504  1.0
  Cs  Cs4  1  0.487114  0.025771  0.760003  1.0
  W  W5  1  0.174785  0.650430  0.221570  1.0
  W  W6  1  0.825215  0.349570  0.778430  1.0
  O  O7  1  0.095084  0.809832  0.346538  1.0
  O  O8  1  0.679719  0.640562  0.632867  1.0
  O  O9  1  0.079108  0.287624  0.915430  1.0
  O  O10  1  0.633268  0.287624  0.915430  1.0
  O  O11  1  0.920892  0.712376  0.084570  1.0
  O  O12  1  0.366732  0.712376  0.084570  1.0
  O  O13  1  0.320281  0.359438  0.367133  1.0
  O  O14  1  0.904916  0.190168  0.653462  1.0
