# generated using pymatgen
data_Li4Ti5O12
_symmetry_space_group_name_H-M   'P 1'
_cell_length_a   5.96060029
_cell_length_b   17.88791844
_cell_length_c   15.76904091
_cell_angle_alpha   19.10942558
_cell_angle_beta   55.71268779
_cell_angle_gamma   60.28617225
_symmetry_Int_Tables_number   1
_chemical_formula_structural   Li4Ti5O12
_chemical_formula_sum   'Li8 Ti10 O24'
_cell_volume   450.58416134
_cell_formula_units_Z   2
loop_
 _symmetry_equiv_pos_site_id
 _symmetry_equiv_pos_as_xyz
  1  'x, y, z'
loop_
 _atom_site_type_symbol
 _atom_site_label
 _atom_site_symmetry_multiplicity
 _atom_site_fract_x
 _atom_site_fract_y
 _atom_site_fract_z
 _atom_site_occupancy
  Li  Li1  1  0.002853  0.005082  0.995911  1.0
  Li  Li2  1  0.002092  0.334879  0.997955  1.0
  Li  Li3  1  0.245814  0.243748  0.256009  1.0
  Li  Li4  1  0.000774  0.672182  0.994783  1.0
  Li  Li5  1  0.624040  0.456513  0.125918  1.0
  Li  Li6  1  0.247388  0.581813  0.251049  1.0
  Li  Li7  1  0.245749  0.916948  0.248252  1.0
  Li  Li8  1  0.622562  0.460887  0.623378  1.0
  Ti  Ti9  1  0.625771  0.128692  0.115988  1.0
  Ti  Ti10  1  0.141281  0.138396  0.602343  1.0
  Ti  Ti11  1  0.125203  0.462232  0.620571  1.0
  Ti  Ti12  1  0.632758  0.138818  0.606294  1.0
  Ti  Ti13  1  0.620001  0.287488  0.639137  1.0
  Ti  Ti14  1  0.627113  0.788711  0.132159  1.0
  Ti  Ti15  1  0.108896  0.776888  0.648308  1.0
  Ti  Ti16  1  0.627705  0.628661  0.612430  1.0
  Ti  Ti17  1  0.616599  0.781022  0.640262  1.0
  Ti  Ti18  1  0.625454  0.956602  0.627012  1.0
  O  O19  1  0.392937  0.015693  0.390252  1.0
  O  O20  1  0.372501  0.184851  0.410515  1.0
  O  O21  1  0.370339  0.335492  0.416678  1.0
  O  O22  1  0.865233  0.013800  0.411654  1.0
  O  O23  1  0.835742  0.185716  0.410905  1.0
  O  O24  1  0.420788  0.049238  0.857132  1.0
  O  O25  1  0.384323  0.536466  0.388962  1.0
  O  O26  1  0.377204  0.698057  0.371835  1.0
  O  O27  1  0.376748  0.233055  0.838606  1.0
  O  O28  1  0.869629  0.345776  0.409140  1.0
  O  O29  1  0.839542  0.542700  0.371661  1.0
  O  O30  1  0.854733  0.045188  0.866926  1.0
  O  O31  1  0.409880  0.375070  0.877618  1.0
  O  O32  1  0.395112  0.872066  0.382368  1.0
  O  O33  1  0.382741  0.570646  0.840588  1.0
  O  O34  1  0.870917  0.222915  0.873530  1.0
  O  O35  1  0.872113  0.687283  0.407818  1.0
  O  O36  1  0.829254  0.870523  0.389797  1.0
  O  O37  1  0.866757  0.382272  0.858340  1.0
  O  O38  1  0.414251  0.731293  0.838637  1.0
  O  O39  1  0.880222  0.580646  0.833476  1.0
  O  O40  1  0.387211  0.902308  0.838672  1.0
  O  O41  1  0.876725  0.729534  0.841707  1.0
  O  O42  1  0.858256  0.900431  0.860375  1.0
