# generated using pymatgen
data_Nb5SiSn2
_symmetry_space_group_name_H-M   'P 1'
_cell_length_a   5.16702688
_cell_length_b   7.97828583
_cell_length_c   7.97828582
_cell_angle_alpha   83.98100489
_cell_angle_beta   71.10601418
_cell_angle_gamma   71.10601406
_symmetry_Int_Tables_number   1
_chemical_formula_structural   Nb5SiSn2
_chemical_formula_sum   'Nb10 Si2 Sn4'
_cell_volume   294.40945684
_cell_formula_units_Z   2
loop_
 _symmetry_equiv_pos_site_id
 _symmetry_equiv_pos_as_xyz
  1  'x, y, z'
loop_
 _atom_site_type_symbol
 _atom_site_label
 _atom_site_symmetry_multiplicity
 _atom_site_fract_x
 _atom_site_fract_y
 _atom_site_fract_z
 _atom_site_occupancy
  Nb  Nb1  1  0.710574  0.859216  0.719635  1.0
  Nb  Nb2  1  0.930210  0.859216  0.280365  1.0
  Nb  Nb3  1  0.289426  0.140784  0.280365  1.0
  Nb  Nb4  1  0.250000  0.500000  0.500000  1.0
  Nb  Nb5  1  0.430210  0.280365  0.859216  1.0
  Nb  Nb6  1  0.569790  0.719635  0.140784  1.0
  Nb  Nb7  1  0.750000  0.500000  0.500000  1.0
  Nb  Nb8  1  0.789426  0.280365  0.140784  1.0
  Nb  Nb9  1  0.069790  0.140784  0.719635  1.0
  Nb  Nb10  1  0.210574  0.719635  0.859216  1.0
  Si  Si11  1  0.750000  0.000000  0.000000  1.0
  Si  Si12  1  0.250000  0.000000  0.000000  1.0
  Sn  Sn13  1  0.668815  0.162370  0.500000  1.0
  Sn  Sn14  1  0.831185  0.500000  0.837630  1.0
  Sn  Sn15  1  0.331185  0.837630  0.500000  1.0
  Sn  Sn16  1  0.168815  0.500000  0.162370  1.0
