# generated using pymatgen
data_KTiF4
_symmetry_space_group_name_H-M   'P 1'
_cell_length_a   4.01223537
_cell_length_b   7.83330172
_cell_length_c   12.43782244
_cell_angle_alpha   142.30298835
_cell_angle_beta   89.29286964
_cell_angle_gamma   75.76168944
_symmetry_Int_Tables_number   1
_chemical_formula_structural   KTiF4
_chemical_formula_sum   'K2 Ti2 F8'
_cell_volume   217.10928794
_cell_formula_units_Z   2
loop_
 _symmetry_equiv_pos_site_id
 _symmetry_equiv_pos_as_xyz
  1  'x, y, z'
loop_
 _atom_site_type_symbol
 _atom_site_label
 _atom_site_symmetry_multiplicity
 _atom_site_fract_x
 _atom_site_fract_y
 _atom_site_fract_z
 _atom_site_occupancy
  K  K1  1  0.986807  0.500693  0.191727  1.0
  K  K2  1  0.998574  0.499266  0.807303  1.0
  Ti  Ti3  1  0.184965  0.119770  0.310770  1.0
  Ti  Ti4  1  0.805027  0.880259  0.690973  1.0
  F  F5  1  0.990266  0.500452  0.600274  1.0
  F  F6  1  0.319987  0.854221  0.054462  1.0
  F  F7  1  0.675665  0.143440  0.698750  1.0
  F  F8  1  0.690939  0.107648  0.305166  1.0
  F  F9  1  0.298918  0.892338  0.697749  1.0
  F  F10  1  0.310962  0.857747  0.303858  1.0
  F  F11  1  0.667297  0.144641  0.946956  1.0
  F  F12  1  0.004131  0.499527  0.400969  1.0
