# generated using pymatgen
data_ZrBiO4
_symmetry_space_group_name_H-M   'P 1'
_cell_length_a   7.85883507
_cell_length_b   5.49952727
_cell_length_c   7.84413985
_cell_angle_alpha   87.19475092
_cell_angle_beta   82.16071514
_cell_angle_gamma   91.37850242
_symmetry_Int_Tables_number   1
_chemical_formula_structural   ZrBiO4
_chemical_formula_sum   'Zr4 Bi4 O16'
_cell_volume   335.29013449
_cell_formula_units_Z   4
loop_
 _symmetry_equiv_pos_site_id
 _symmetry_equiv_pos_as_xyz
  1  'x, y, z'
loop_
 _atom_site_type_symbol
 _atom_site_label
 _atom_site_symmetry_multiplicity
 _atom_site_fract_x
 _atom_site_fract_y
 _atom_site_fract_z
 _atom_site_occupancy
  Zr  Zr1  1  0.359945  0.221059  0.328542  1.0
  Zr  Zr2  1  0.329830  0.257111  0.827273  1.0
  Zr  Zr3  1  0.670170  0.742889  0.172727  1.0
  Zr  Zr4  1  0.640055  0.778941  0.671458  1.0
  Bi  Bi5  1  0.178132  0.723255  0.150546  1.0
  Bi  Bi6  1  0.136636  0.754762  0.638517  1.0
  Bi  Bi7  1  0.863364  0.245238  0.361483  1.0
  Bi  Bi8  1  0.821867  0.276745  0.849454  1.0
  O  O9  1  0.112518  0.008527  0.317849  1.0
  O  O10  1  0.184963  0.500230  0.387100  1.0
  O  O11  1  0.079941  0.410723  0.828333  1.0
  O  O12  1  0.319282  0.402684  0.073084  1.0
  O  O13  1  0.191318  0.918019  0.909397  1.0
  O  O14  1  0.322417  0.101881  0.582144  1.0
  O  O15  1  0.427941  0.905361  0.184716  1.0
  O  O16  1  0.590004  0.415336  0.307557  1.0
  O  O17  1  0.409996  0.584664  0.692443  1.0
  O  O18  1  0.572059  0.094639  0.815284  1.0
  O  O19  1  0.677583  0.898119  0.417856  1.0
  O  O20  1  0.808682  0.081981  0.090603  1.0
  O  O21  1  0.680718  0.597316  0.926916  1.0
  O  O22  1  0.920059  0.589277  0.171667  1.0
  O  O23  1  0.815037  0.499770  0.612900  1.0
  O  O24  1  0.887482  0.991473  0.682151  1.0
