# generated using pymatgen
data_CoPO4
_symmetry_space_group_name_H-M   'P 1'
_cell_length_a   10.45000541
_cell_length_b   6.71682543
_cell_length_c   5.10946249
_cell_angle_alpha   90.00000000
_cell_angle_beta   90.00000000
_cell_angle_gamma   90.00000000
_symmetry_Int_Tables_number   1
_chemical_formula_structural   CoPO4
_chemical_formula_sum   'Co4 P4 O16'
_cell_volume   358.63757695
_cell_formula_units_Z   4
loop_
 _symmetry_equiv_pos_site_id
 _symmetry_equiv_pos_as_xyz
  1  'x, y, z'
loop_
 _atom_site_type_symbol
 _atom_site_label
 _atom_site_symmetry_multiplicity
 _atom_site_fract_x
 _atom_site_fract_y
 _atom_site_fract_z
 _atom_site_occupancy
  Co  Co1  1  0.342447  0.716415  0.185133  1.0
  Co  Co2  1  0.842447  0.716415  0.314867  1.0
  Co  Co3  1  0.657553  0.216415  0.814867  1.0
  Co  Co4  1  0.157553  0.216415  0.685133  1.0
  P  P5  1  0.405006  0.462397  0.686420  1.0
  P  P6  1  0.905006  0.462397  0.813580  1.0
  P  P7  1  0.094994  0.962397  0.186420  1.0
  P  P8  1  0.594994  0.962397  0.313580  1.0
  O  O9  1  0.952260  0.926546  0.248340  1.0
  O  O10  1  0.611263  0.998654  0.611039  1.0
  O  O11  1  0.172832  0.774579  0.263155  1.0
  O  O12  1  0.357788  0.649940  0.833440  1.0
  O  O13  1  0.111263  0.998654  0.888961  1.0
  O  O14  1  0.827168  0.274579  0.736845  1.0
  O  O15  1  0.452260  0.926546  0.251660  1.0
  O  O16  1  0.642212  0.149940  0.166560  1.0
  O  O17  1  0.888737  0.498654  0.111039  1.0
  O  O18  1  0.142212  0.149940  0.333440  1.0
  O  O19  1  0.672832  0.774579  0.236845  1.0
  O  O20  1  0.047740  0.426546  0.751660  1.0
  O  O21  1  0.327168  0.274579  0.763155  1.0
  O  O22  1  0.388737  0.498654  0.388961  1.0
  O  O23  1  0.857788  0.649940  0.666560  1.0
  O  O24  1  0.547740  0.426546  0.748340  1.0
