# generated using pymatgen
data_MoO3
_symmetry_space_group_name_H-M   'P 1'
_cell_length_a   5.39531593
_cell_length_b   5.55205261
_cell_length_c   7.83946719
_cell_angle_alpha   76.67808706
_cell_angle_beta   90.00000000
_cell_angle_gamma   90.00000000
_symmetry_Int_Tables_number   1
_chemical_formula_structural   MoO3
_chemical_formula_sum   'Mo4 O12'
_cell_volume   228.51271740
_cell_formula_units_Z   4
loop_
 _symmetry_equiv_pos_site_id
 _symmetry_equiv_pos_as_xyz
  1  'x, y, z'
loop_
 _atom_site_type_symbol
 _atom_site_label
 _atom_site_symmetry_multiplicity
 _atom_site_fract_x
 _atom_site_fract_y
 _atom_site_fract_z
 _atom_site_occupancy
  Mo  Mo1  1  0.002437  0.987025  0.987083  1.0
  Mo  Mo2  1  0.497563  0.487025  0.987083  1.0
  Mo  Mo3  1  0.472993  0.650546  0.492528  1.0
  Mo  Mo4  1  0.027007  0.150546  0.492528  1.0
  O  O5  1  0.186377  0.881614  0.439845  1.0
  O  O6  1  0.243135  0.748279  0.046737  1.0
  O  O7  1  0.425297  0.572155  0.739321  1.0
  O  O8  1  0.074703  0.072155  0.739321  1.0
  O  O9  1  0.256865  0.248279  0.046737  1.0
  O  O10  1  0.313623  0.381614  0.439845  1.0
  O  O11  1  0.803215  0.467497  0.501518  1.0
  O  O12  1  0.661917  0.912900  0.327217  1.0
  O  O13  1  0.740641  0.728784  0.986552  1.0
  O  O14  1  0.759359  0.228784  0.986552  1.0
  O  O15  1  0.838083  0.412900  0.327217  1.0
  O  O16  1  0.696785  0.967497  0.501518  1.0
