# generated using pymatgen
data_MnFeO3
_symmetry_space_group_name_H-M   'P 1'
_cell_length_a   8.27018208
_cell_length_b   8.27018244
_cell_length_c   8.27018254
_cell_angle_alpha   109.70983502
_cell_angle_beta   109.27086440
_cell_angle_gamma   109.43326871
_symmetry_Int_Tables_number   1
_chemical_formula_structural   MnFeO3
_chemical_formula_sum   'Mn8 Fe8 O24'
_cell_volume   435.42848354
_cell_formula_units_Z   8
loop_
 _symmetry_equiv_pos_site_id
 _symmetry_equiv_pos_as_xyz
  1  'x, y, z'
loop_
 _atom_site_type_symbol
 _atom_site_label
 _atom_site_symmetry_multiplicity
 _atom_site_fract_x
 _atom_site_fract_y
 _atom_site_fract_z
 _atom_site_occupancy
  Mn  Mn1  1  0.218140  0.968140  0.250000  1.0
  Mn  Mn2  1  0.250000  0.216321  0.966321  1.0
  Mn  Mn3  1  0.281860  0.531860  0.750000  1.0
  Mn  Mn4  1  0.250000  0.716321  0.466321  1.0
  Mn  Mn5  1  0.750000  0.283679  0.533679  1.0
  Mn  Mn6  1  0.750000  0.783679  0.033679  1.0
  Mn  Mn7  1  0.718140  0.468140  0.250000  1.0
  Mn  Mn8  1  0.781860  0.031860  0.750000  1.0
  Fe  Fe9  1  0.000000  0.000000  0.500000  1.0
  Fe  Fe10  1  0.039999  0.750000  0.789999  1.0
  Fe  Fe11  1  0.000000  0.500000  0.000000  1.0
  Fe  Fe12  1  0.460001  0.250000  0.710001  1.0
  Fe  Fe13  1  0.500000  0.500000  0.500000  1.0
  Fe  Fe14  1  0.539999  0.750000  0.289999  1.0
  Fe  Fe15  1  0.500000  0.000000  0.000000  1.0
  Fe  Fe16  1  0.960001  0.250000  0.210001  1.0
  O  O17  1  0.059194  0.509161  0.785946  1.0
  O  O18  1  0.224649  0.950275  0.492675  1.0
  O  O19  1  0.275351  0.768027  0.725626  1.0
  O  O20  1  0.223215  0.273248  0.714054  1.0
  O  O21  1  0.983136  0.044143  0.269285  1.0
  O  O22  1  0.225141  0.455857  0.438993  1.0
  O  O23  1  0.042400  0.268027  0.992675  1.0
  O  O24  1  0.274859  0.713852  0.230715  1.0
  O  O25  1  0.723215  0.009161  0.949967  1.0
  O  O26  1  0.559194  0.773248  0.550033  1.0
  O  O27  1  0.483136  0.213852  0.938993  1.0
  O  O28  1  0.542400  0.549725  0.774374  1.0
  O  O29  1  0.457600  0.450275  0.225626  1.0
  O  O30  1  0.516864  0.786148  0.061007  1.0
  O  O31  1  0.440806  0.226752  0.449967  1.0
  O  O32  1  0.276785  0.990839  0.050033  1.0
  O  O33  1  0.957600  0.731973  0.007325  1.0
  O  O34  1  0.725141  0.286148  0.769285  1.0
  O  O35  1  0.774859  0.544143  0.561007  1.0
  O  O36  1  0.016864  0.955857  0.730715  1.0
  O  O37  1  0.776785  0.726752  0.285946  1.0
  O  O38  1  0.724649  0.231973  0.274374  1.0
  O  O39  1  0.775351  0.049725  0.507325  1.0
  O  O40  1  0.940806  0.490839  0.214054  1.0
