# generated using pymatgen
data_H6PbCI3N
_symmetry_space_group_name_H-M   'P 1'
_cell_length_a   8.55672637
_cell_length_b   12.96364987
_cell_length_c   9.25046000
_cell_angle_alpha   90.00000000
_cell_angle_beta   90.00000000
_cell_angle_gamma   90.00000000
_symmetry_Int_Tables_number   1
_chemical_formula_structural   H6PbCI3N
_chemical_formula_sum   'H24 Pb4 C4 I12 N4'
_cell_volume   1026.12026957
_cell_formula_units_Z   4
loop_
 _symmetry_equiv_pos_site_id
 _symmetry_equiv_pos_as_xyz
  1  'x, y, z'
loop_
 _atom_site_type_symbol
 _atom_site_label
 _atom_site_symmetry_multiplicity
 _atom_site_fract_x
 _atom_site_fract_y
 _atom_site_fract_z
 _atom_site_occupancy
  H  H1  1  0.494264  0.314624  0.142974  1.0
  H  H2  1  0.505736  0.685376  0.857026  1.0
  H  H3  1  0.005736  0.685376  0.642974  1.0
  H  H4  1  0.994264  0.314624  0.357026  1.0
  H  H5  1  0.505736  0.814624  0.857026  1.0
  H  H6  1  0.494264  0.185376  0.142974  1.0
  H  H7  1  0.994264  0.185376  0.357026  1.0
  H  H8  1  0.005736  0.814624  0.642974  1.0
  H  H9  1  0.338059  0.250000  0.078632  1.0
  H  H10  1  0.661941  0.750000  0.921368  1.0
  H  H11  1  0.161941  0.750000  0.578632  1.0
  H  H12  1  0.838059  0.250000  0.421368  1.0
  H  H13  1  0.494775  0.319239  0.879889  1.0
  H  H14  1  0.505225  0.680761  0.120111  1.0
  H  H15  1  0.005225  0.680761  0.379889  1.0
  H  H16  1  0.994775  0.319239  0.620112  1.0
  H  H17  1  0.505225  0.819239  0.120111  1.0
  H  H18  1  0.494775  0.180761  0.879889  1.0
  H  H19  1  0.994775  0.180761  0.620112  1.0
  H  H20  1  0.005225  0.819239  0.379889  1.0
  H  H21  1  0.659848  0.250000  0.949663  1.0
  H  H22  1  0.340152  0.750000  0.050337  1.0
  H  H23  1  0.840152  0.750000  0.449663  1.0
  H  H24  1  0.159848  0.250000  0.550337  1.0
  Pb  Pb25  1  0.500000  0.000000  0.500000  1.0
  Pb  Pb26  1  0.000000  0.000000  0.000000  1.0
  Pb  Pb27  1  0.500000  0.500000  0.500000  1.0
  Pb  Pb28  1  0.000000  0.500000  0.000000  1.0
  C  C29  1  0.532355  0.250000  0.937838  1.0
  C  C30  1  0.467645  0.750000  0.062162  1.0
  C  C31  1  0.967645  0.750000  0.437838  1.0
  C  C32  1  0.032355  0.250000  0.562162  1.0
  I  I33  1  0.537733  0.250000  0.512596  1.0
  I  I34  1  0.462267  0.750000  0.487404  1.0
  I  I35  1  0.962267  0.750000  0.012596  1.0
  I  I36  1  0.037733  0.250000  0.987404  1.0
  I  I37  1  0.816066  0.977853  0.692839  1.0
  I  I38  1  0.183934  0.022147  0.307161  1.0
  I  I39  1  0.683934  0.022147  0.192839  1.0
  I  I40  1  0.316066  0.977853  0.807161  1.0
  I  I41  1  0.183934  0.477853  0.307161  1.0
  I  I42  1  0.816066  0.522147  0.692839  1.0
  I  I43  1  0.316066  0.522147  0.807161  1.0
  I  I44  1  0.683934  0.477853  0.192839  1.0
  N  N45  1  0.459609  0.250000  0.084863  1.0
  N  N46  1  0.540391  0.750000  0.915137  1.0
  N  N47  1  0.040391  0.750000  0.584863  1.0
  N  N48  1  0.959609  0.250000  0.415137  1.0
