# generated using pymatgen
data_LiVF4
_symmetry_space_group_name_H-M   'P 1'
_cell_length_a   5.56466129
_cell_length_b   5.48008808
_cell_length_c   6.06301570
_cell_angle_alpha   117.17690177
_cell_angle_beta   88.22594519
_cell_angle_gamma   91.79104715
_symmetry_Int_Tables_number   1
_chemical_formula_structural   LiVF4
_chemical_formula_sum   'Li2 V2 F8'
_cell_volume   164.36954090
_cell_formula_units_Z   2
loop_
 _symmetry_equiv_pos_site_id
 _symmetry_equiv_pos_as_xyz
  1  'x, y, z'
loop_
 _atom_site_type_symbol
 _atom_site_label
 _atom_site_symmetry_multiplicity
 _atom_site_fract_x
 _atom_site_fract_y
 _atom_site_fract_z
 _atom_site_occupancy
  Li  Li1  1  0.246769  0.520488  0.553615  1.0
  Li  Li2  1  0.753217  0.479367  0.446356  1.0
  V  V3  1  0.499983  0.500086  0.000090  1.0
  V  V4  1  0.000017  0.000086  0.999972  1.0
  F  F5  1  0.705725  0.825228  0.060757  1.0
  F  F6  1  0.965377  0.775814  0.645382  1.0
  F  F7  1  0.463088  0.619493  0.352717  1.0
  F  F8  1  0.793164  0.313215  0.036729  1.0
  F  F9  1  0.206789  0.686818  0.963224  1.0
  F  F10  1  0.536967  0.380465  0.647243  1.0
  F  F11  1  0.034588  0.224095  0.354633  1.0
  F  F12  1  0.294321  0.174847  0.939287  1.0
