# generated using pymatgen
data_Zr3As2
_symmetry_space_group_name_H-M   'P 1'
_cell_length_a   10.63463444
_cell_length_b   3.78946955
_cell_length_c   10.18481169
_cell_angle_alpha   90.00000000
_cell_angle_beta   90.00000000
_cell_angle_gamma   90.00000000
_symmetry_Int_Tables_number   1
_chemical_formula_structural   Zr3As2
_chemical_formula_sum   'Zr12 As8'
_cell_volume   410.44407536
_cell_formula_units_Z   4
loop_
 _symmetry_equiv_pos_site_id
 _symmetry_equiv_pos_as_xyz
  1  'x, y, z'
loop_
 _atom_site_type_symbol
 _atom_site_label
 _atom_site_symmetry_multiplicity
 _atom_site_fract_x
 _atom_site_fract_y
 _atom_site_fract_z
 _atom_site_occupancy
  Zr  Zr1  1  0.214402  0.249998  0.205369  1.0
  Zr  Zr2  1  0.285598  0.749999  0.705368  1.0
  Zr  Zr3  1  0.714402  0.249998  0.294632  1.0
  Zr  Zr4  1  0.785598  0.749999  0.794632  1.0
  Zr  Zr5  1  0.123885  0.749999  0.432659  1.0
  Zr  Zr6  1  0.376115  0.249998  0.932660  1.0
  Zr  Zr7  1  0.623885  0.749999  0.067340  1.0
  Zr  Zr8  1  0.876115  0.249998  0.567340  1.0
  Zr  Zr9  1  0.045016  0.249998  0.875523  1.0
  Zr  Zr10  1  0.454985  0.749999  0.375523  1.0
  Zr  Zr11  1  0.545015  0.249998  0.624477  1.0
  Zr  Zr12  1  0.954985  0.749999  0.124477  1.0
  As  As13  1  0.305168  0.249998  0.500937  1.0
  As  As14  1  0.194832  0.749999  0.000937  1.0
  As  As15  1  0.694831  0.749999  0.499064  1.0
  As  As16  1  0.805168  0.249998  0.999063  1.0
  As  As17  1  0.971275  0.249998  0.319761  1.0
  As  As18  1  0.528725  0.749999  0.819761  1.0
  As  As19  1  0.471275  0.249998  0.180238  1.0
  As  As20  1  0.028725  0.749999  0.680238  1.0
