# generated using pymatgen
data_Mg6SiB
_symmetry_space_group_name_H-M   'P 1'
_cell_length_a   6.28721046
_cell_length_b   6.28720930
_cell_length_c   3.97570790
_cell_angle_alpha   90.00000000
_cell_angle_beta   90.00000000
_cell_angle_gamma   103.51633830
_symmetry_Int_Tables_number   1
_chemical_formula_structural   Mg6SiB
_chemical_formula_sum   'Mg6 Si1 B1'
_cell_volume   152.80309485
_cell_formula_units_Z   1
loop_
 _symmetry_equiv_pos_site_id
 _symmetry_equiv_pos_as_xyz
  1  'x, y, z'
loop_
 _atom_site_type_symbol
 _atom_site_label
 _atom_site_symmetry_multiplicity
 _atom_site_fract_x
 _atom_site_fract_y
 _atom_site_fract_z
 _atom_site_occupancy
  Mg  Mg1  1  0.186394  0.944203  0.250000  1.0
  Mg  Mg2  1  0.555797  0.313606  0.250000  1.0
  Mg  Mg3  1  0.628635  0.871365  0.250000  1.0
  Mg  Mg4  1  0.336355  0.602227  0.750000  1.0
  Mg  Mg5  1  0.897773  0.163645  0.750000  1.0
  Mg  Mg6  1  0.859637  0.640363  0.750000  1.0
  Si  Si7  1  0.053504  0.446496  0.250000  1.0
  B  B8  1  0.481907  0.018093  0.750000  1.0
