# generated using pymatgen
data_RbMg6B
_symmetry_space_group_name_H-M   'P 1'
_cell_length_a   8.33370704
_cell_length_b   8.33370726
_cell_length_c   3.42424096
_cell_angle_alpha   90.00000000
_cell_angle_beta   90.00000000
_cell_angle_gamma   119.00183479
_symmetry_Int_Tables_number   1
_chemical_formula_structural   RbMg6B
_chemical_formula_sum   'Rb1 Mg6 B1'
_cell_volume   207.99473297
_cell_formula_units_Z   1
loop_
 _symmetry_equiv_pos_site_id
 _symmetry_equiv_pos_as_xyz
  1  'x, y, z'
loop_
 _atom_site_type_symbol
 _atom_site_label
 _atom_site_symmetry_multiplicity
 _atom_site_fract_x
 _atom_site_fract_y
 _atom_site_fract_z
 _atom_site_occupancy
  Rb  Rb1  1  0.160434  0.339566  0.250000  1.0
  Mg  Mg2  1  0.187714  0.943833  0.250000  1.0
  Mg  Mg3  1  0.556167  0.312286  0.250000  1.0
  Mg  Mg4  1  0.708340  0.791660  0.250000  1.0
  Mg  Mg5  1  0.371963  0.792523  0.750000  1.0
  Mg  Mg6  1  0.707477  0.128037  0.750000  1.0
  Mg  Mg7  1  0.904949  0.595051  0.750000  1.0
  B  B8  1  0.402955  0.097045  0.750000  1.0
