# generated using pymatgen
data_LiMg6Mo
_symmetry_space_group_name_H-M   'P 1'
_cell_length_a   6.09851512
_cell_length_b   8.51028495
_cell_length_c   4.33937240
_cell_angle_alpha   90.00000000
_cell_angle_beta   90.00000000
_cell_angle_gamma   134.24549505
_symmetry_Int_Tables_number   1
_chemical_formula_structural   LiMg6Mo
_chemical_formula_sum   'Li1 Mg6 Mo1'
_cell_volume   161.33348694
_cell_formula_units_Z   1
loop_
 _symmetry_equiv_pos_site_id
 _symmetry_equiv_pos_as_xyz
  1  'x, y, z'
loop_
 _atom_site_type_symbol
 _atom_site_label
 _atom_site_symmetry_multiplicity
 _atom_site_fract_x
 _atom_site_fract_y
 _atom_site_fract_z
 _atom_site_occupancy
  Li  Li1  1  0.236985  0.368492  0.250000  1.0
  Mg  Mg2  1  0.749123  0.377407  0.250000  1.0
  Mg  Mg3  1  0.749123  0.871715  0.250000  1.0
  Mg  Mg4  1  0.252072  0.119512  0.750000  1.0
  Mg  Mg5  1  0.252072  0.632562  0.750000  1.0
  Mg  Mg6  1  0.714058  0.107029  0.750000  1.0
  Mg  Mg7  1  0.791837  0.645919  0.750000  1.0
  Mo  Mo8  1  0.254730  0.877365  0.250000  1.0
