# generated using pymatgen
data_KMg6Nb
_symmetry_space_group_name_H-M   'P 1'
_cell_length_a   6.55707269
_cell_length_b   9.23604061
_cell_length_c   4.58053841
_cell_angle_alpha   90.00000000
_cell_angle_beta   90.00000000
_cell_angle_gamma   134.77146975
_symmetry_Int_Tables_number   1
_chemical_formula_structural   KMg6Nb
_chemical_formula_sum   'K1 Mg6 Nb1'
_cell_volume   196.93490677
_cell_formula_units_Z   1
loop_
 _symmetry_equiv_pos_site_id
 _symmetry_equiv_pos_as_xyz
  1  'x, y, z'
loop_
 _atom_site_type_symbol
 _atom_site_label
 _atom_site_symmetry_multiplicity
 _atom_site_fract_x
 _atom_site_fract_y
 _atom_site_fract_z
 _atom_site_occupancy
  K  K1  1  0.239848  0.369923  0.250000  1.0
  Mg  Mg2  1  0.751754  0.381187  0.250000  1.0
  Mg  Mg3  1  0.751754  0.870567  0.250000  1.0
  Mg  Mg4  1  0.252964  0.095468  0.750000  1.0
  Mg  Mg5  1  0.252964  0.657498  0.750000  1.0
  Mg  Mg6  1  0.690843  0.095422  0.750000  1.0
  Mg  Mg7  1  0.807732  0.653867  0.750000  1.0
  Nb  Nb8  1  0.252140  0.876070  0.250000  1.0
