# generated using pymatgen
data_Mg6VB
_symmetry_space_group_name_H-M   'P 1'
_cell_length_a   6.92330073
_cell_length_b   6.92329913
_cell_length_c   3.32338925
_cell_angle_alpha   90.00000000
_cell_angle_beta   90.00000000
_cell_angle_gamma   96.35567545
_symmetry_Int_Tables_number   1
_chemical_formula_structural   Mg6VB
_chemical_formula_sum   'Mg6 V1 B1'
_cell_volume   158.31790357
_cell_formula_units_Z   1
loop_
 _symmetry_equiv_pos_site_id
 _symmetry_equiv_pos_as_xyz
  1  'x, y, z'
loop_
 _atom_site_type_symbol
 _atom_site_label
 _atom_site_symmetry_multiplicity
 _atom_site_fract_x
 _atom_site_fract_y
 _atom_site_fract_z
 _atom_site_occupancy
  Mg  Mg1  1  0.208393  0.953598  0.250000  1.0
  Mg  Mg2  1  0.546402  0.291607  0.250000  1.0
  Mg  Mg3  1  0.666729  0.833271  0.250000  1.0
  Mg  Mg4  1  0.368819  0.611393  0.750000  1.0
  Mg  Mg5  1  0.888607  0.131181  0.750000  1.0
  Mg  Mg6  1  0.911200  0.588800  0.750000  1.0
  V  V7  1  0.145957  0.354043  0.250000  1.0
  B  B8  1  0.263891  0.236109  0.750000  1.0
