# generated using pymatgen
data_Mg6CuB
_symmetry_space_group_name_H-M   'P 1'
_cell_length_a   6.39886096
_cell_length_b   6.39886033
_cell_length_c   3.70907797
_cell_angle_alpha   90.00000000
_cell_angle_beta   90.00000000
_cell_angle_gamma   101.50860536
_symmetry_Int_Tables_number   1
_chemical_formula_structural   Mg6CuB
_chemical_formula_sum   'Mg6 Cu1 B1'
_cell_volume   148.81636703
_cell_formula_units_Z   1
loop_
 _symmetry_equiv_pos_site_id
 _symmetry_equiv_pos_as_xyz
  1  'x, y, z'
loop_
 _atom_site_type_symbol
 _atom_site_label
 _atom_site_symmetry_multiplicity
 _atom_site_fract_x
 _atom_site_fract_y
 _atom_site_fract_z
 _atom_site_occupancy
  Mg  Mg1  1  0.194214  0.947361  0.250000  1.0
  Mg  Mg2  1  0.552639  0.305786  0.250000  1.0
  Mg  Mg3  1  0.629605  0.870395  0.250000  1.0
  Mg  Mg4  1  0.333285  0.601562  0.750000  1.0
  Mg  Mg5  1  0.898438  0.166715  0.750000  1.0
  Mg  Mg6  1  0.862675  0.637325  0.750000  1.0
  Cu  Cu7  1  0.051947  0.448053  0.250000  1.0
  B  B8  1  0.477195  0.022805  0.750000  1.0
