# generated using pymatgen
data_Ba2Cd
_symmetry_space_group_name_H-M   'P 1'
_cell_length_a   4.31587519
_cell_length_b   4.31587520
_cell_length_c   8.24671397
_cell_angle_alpha   105.16932072
_cell_angle_beta   105.16932071
_cell_angle_gamma   90.00000005
_symmetry_Int_Tables_number   1
_chemical_formula_structural   Ba2Cd
_chemical_formula_sum   'Ba2 Cd1'
_cell_volume   142.70459120
_cell_formula_units_Z   1
loop_
 _symmetry_equiv_pos_site_id
 _symmetry_equiv_pos_as_xyz
  1  'x, y, z'
loop_
 _atom_site_type_symbol
 _atom_site_label
 _atom_site_symmetry_multiplicity
 _atom_site_fract_x
 _atom_site_fract_y
 _atom_site_fract_z
 _atom_site_occupancy
  Ba  Ba1  1  0.632710  0.632710  0.265421  1.0
  Ba  Ba2  1  0.367290  0.367290  0.734579  1.0
  Cd  Cd3  1  0.000000  0.000000  0.000000  1.0
