# generated using pymatgen
data_YNi4B
_symmetry_space_group_name_H-M   'P 1'
_cell_length_a   4.97643803
_cell_length_b   4.97643802
_cell_length_c   6.95263329
_cell_angle_alpha   90.00000000
_cell_angle_beta   90.00000000
_cell_angle_gamma   119.99999998
_symmetry_Int_Tables_number   1
_chemical_formula_structural   YNi4B
_chemical_formula_sum   'Y2 Ni8 B2'
_cell_volume   149.11356556
_cell_formula_units_Z   2
loop_
 _symmetry_equiv_pos_site_id
 _symmetry_equiv_pos_as_xyz
  1  'x, y, z'
loop_
 _atom_site_type_symbol
 _atom_site_label
 _atom_site_symmetry_multiplicity
 _atom_site_fract_x
 _atom_site_fract_y
 _atom_site_fract_z
 _atom_site_occupancy
  Y  Y1  1  0.000000  0.000000  0.500000  1.0
  Y  Y2  1  0.000000  0.000000  0.000000  1.0
  Ni  Ni3  1  0.333333  0.666667  0.000000  1.0
  Ni  Ni4  1  0.666667  0.333333  0.000000  1.0
  Ni  Ni5  1  0.500000  0.000000  0.292090  1.0
  Ni  Ni6  1  0.500000  0.500000  0.292090  1.0
  Ni  Ni7  1  0.000000  0.500000  0.292090  1.0
  Ni  Ni8  1  0.500000  0.000000  0.707910  1.0
  Ni  Ni9  1  0.500000  0.500000  0.707910  1.0
  Ni  Ni10  1  0.000000  0.500000  0.707910  1.0
  B  B11  1  0.666667  0.333333  0.500000  1.0
  B  B12  1  0.333333  0.666667  0.500000  1.0
