# generated using pymatgen
data_GdFeO3
_symmetry_space_group_name_H-M   'P 1'
_cell_length_a   5.39494233
_cell_length_b   5.66608531
_cell_length_c   7.77632118
_cell_angle_alpha   90.00000000
_cell_angle_beta   90.00000000
_cell_angle_gamma   90.00000000
_symmetry_Int_Tables_number   1
_chemical_formula_structural   GdFeO3
_chemical_formula_sum   'Gd4 Fe4 O12'
_cell_volume   237.70816819
_cell_formula_units_Z   4
loop_
 _symmetry_equiv_pos_site_id
 _symmetry_equiv_pos_as_xyz
  1  'x, y, z'
loop_
 _atom_site_type_symbol
 _atom_site_label
 _atom_site_symmetry_multiplicity
 _atom_site_fract_x
 _atom_site_fract_y
 _atom_site_fract_z
 _atom_site_occupancy
  Gd  Gd1  1  0.983426  0.065799  0.250000  1.0
  Gd  Gd2  1  0.483426  0.434201  0.750000  1.0
  Gd  Gd3  1  0.516574  0.565799  0.250000  1.0
  Gd  Gd4  1  0.016574  0.934201  0.750000  1.0
  Fe  Fe5  1  0.000000  0.500000  0.000000  1.0
  Fe  Fe6  1  0.500000  0.000000  0.500000  1.0
  Fe  Fe7  1  0.500000  0.000000  0.000000  1.0
  Fe  Fe8  1  0.000000  0.500000  0.500000  1.0
  O  O9  1  0.306586  0.695413  0.555836  1.0
  O  O10  1  0.392731  0.965047  0.250000  1.0
  O  O11  1  0.193414  0.195413  0.944164  1.0
  O  O12  1  0.693414  0.304587  0.055836  1.0
  O  O13  1  0.693414  0.304587  0.444164  1.0
  O  O14  1  0.806586  0.804587  0.444164  1.0
  O  O15  1  0.306586  0.695413  0.944164  1.0
  O  O16  1  0.193414  0.195413  0.555836  1.0
  O  O17  1  0.892731  0.534953  0.750000  1.0
  O  O18  1  0.607269  0.034953  0.750000  1.0
  O  O19  1  0.806586  0.804587  0.055836  1.0
  O  O20  1  0.107269  0.465047  0.250000  1.0
