# generated using pymatgen
data_Mg6FeC
_symmetry_space_group_name_H-M   'P 1'
_cell_length_a   6.21783348
_cell_length_b   8.23443257
_cell_length_c   3.76208095
_cell_angle_alpha   90.00000000
_cell_angle_beta   90.00000000
_cell_angle_gamma   131.46501960
_symmetry_Int_Tables_number   1
_chemical_formula_structural   Mg6FeC
_chemical_formula_sum   'Mg6 Fe1 C1'
_cell_volume   144.34158869
_cell_formula_units_Z   1
loop_
 _symmetry_equiv_pos_site_id
 _symmetry_equiv_pos_as_xyz
  1  'x, y, z'
loop_
 _atom_site_type_symbol
 _atom_site_label
 _atom_site_symmetry_multiplicity
 _atom_site_fract_x
 _atom_site_fract_y
 _atom_site_fract_z
 _atom_site_occupancy
  Mg  Mg1  1  0.786626  0.393273  0.250000  1.0
  Mg  Mg2  1  0.786626  0.893353  0.250000  1.0
  Mg  Mg3  1  0.269030  0.065866  0.750000  1.0
  Mg  Mg4  1  0.269030  0.703165  0.750000  1.0
  Mg  Mg5  1  0.899795  0.199898  0.750000  1.0
  Mg  Mg6  1  0.701656  0.600828  0.750000  1.0
  Fe  Fe7  1  0.289800  0.394899  0.250000  1.0
  C  C8  1  0.997438  0.748718  0.250000  1.0
