# generated using pymatgen
data_SbRhO4
_symmetry_space_group_name_H-M   'P 1'
_cell_length_a   3.21726366
_cell_length_b   4.66837582
_cell_length_c   4.66837582
_cell_angle_alpha   90.97139466
_cell_angle_beta   90.00000000
_cell_angle_gamma   90.00000000
_symmetry_Int_Tables_number   1
_chemical_formula_structural   SbRhO4
_chemical_formula_sum   'Sb1 Rh1 O4'
_cell_volume   70.10610771
_cell_formula_units_Z   1
loop_
 _symmetry_equiv_pos_site_id
 _symmetry_equiv_pos_as_xyz
  1  'x, y, z'
loop_
 _atom_site_type_symbol
 _atom_site_label
 _atom_site_symmetry_multiplicity
 _atom_site_fract_x
 _atom_site_fract_y
 _atom_site_fract_z
 _atom_site_occupancy
  Sb  Sb1  1  0.000000  0.000000  0.000000  1.0
  Rh  Rh2  1  0.500000  0.500000  0.500000  1.0
  O  O3  1  0.000000  0.306342  0.306342  1.0
  O  O4  1  0.500000  0.808275  0.191725  1.0
  O  O5  1  0.500000  0.191725  0.808275  1.0
  O  O6  1  0.000000  0.693658  0.693658  1.0
