# generated using pymatgen
data_Nd(CuSi)2
_symmetry_space_group_name_H-M   'P 1'
_cell_length_a   4.06524889
_cell_length_b   4.06524861
_cell_length_c   5.75702692
_cell_angle_alpha   110.67510837
_cell_angle_beta   110.67511336
_cell_angle_gamma   89.99999705
_symmetry_Int_Tables_number   1
_chemical_formula_structural   Nd(CuSi)2
_chemical_formula_sum   'Nd1 Cu2 Si2'
_cell_volume   82.43307080
_cell_formula_units_Z   1
loop_
 _symmetry_equiv_pos_site_id
 _symmetry_equiv_pos_as_xyz
  1  'x, y, z'
loop_
 _atom_site_type_symbol
 _atom_site_label
 _atom_site_symmetry_multiplicity
 _atom_site_fract_x
 _atom_site_fract_y
 _atom_site_fract_z
 _atom_site_occupancy
  Nd  Nd1  1  0.000000  0.000000  0.000000  1.0
  Cu  Cu2  1  0.750000  0.250000  0.500000  1.0
  Cu  Cu3  1  0.250000  0.750000  0.500000  1.0
  Si  Si4  1  0.620605  0.620605  0.241209  1.0
  Si  Si5  1  0.379395  0.379395  0.758791  1.0
