# generated using pymatgen
data_K2CuF4
_symmetry_space_group_name_H-M   'P 1'
_cell_length_a   4.13660563
_cell_length_b   4.13660562
_cell_length_c   7.13474875
_cell_angle_alpha   106.85145868
_cell_angle_beta   106.85145862
_cell_angle_gamma   89.99999999
_symmetry_Int_Tables_number   1
_chemical_formula_structural   K2CuF4
_chemical_formula_sum   'K2 Cu1 F4'
_cell_volume   111.35487514
_cell_formula_units_Z   1
loop_
 _symmetry_equiv_pos_site_id
 _symmetry_equiv_pos_as_xyz
  1  'x, y, z'
loop_
 _atom_site_type_symbol
 _atom_site_label
 _atom_site_symmetry_multiplicity
 _atom_site_fract_x
 _atom_site_fract_y
 _atom_site_fract_z
 _atom_site_occupancy
  K  K1  1  0.356900  0.356900  0.713800  1.0
  K  K2  1  0.643100  0.643100  0.286200  1.0
  Cu  Cu3  1  0.000000  0.000000  0.000000  1.0
  F  F4  1  0.153348  0.153348  0.306697  1.0
  F  F5  1  0.500000  0.000000  0.000000  1.0
  F  F6  1  0.846652  0.846652  0.693303  1.0
  F  F7  1  0.000000  0.500000  0.000000  1.0
