# generated using pymatgen
data_KAlF4
_symmetry_space_group_name_H-M   'P 1'
_cell_length_a   5.12244941
_cell_length_b   5.12244941
_cell_length_c   6.28818241
_cell_angle_alpha   90.00000000
_cell_angle_beta   90.00000000
_cell_angle_gamma   90.00000000
_symmetry_Int_Tables_number   1
_chemical_formula_structural   KAlF4
_chemical_formula_sum   'K2 Al2 F8'
_cell_volume   164.99868662
_cell_formula_units_Z   2
loop_
 _symmetry_equiv_pos_site_id
 _symmetry_equiv_pos_as_xyz
  1  'x, y, z'
loop_
 _atom_site_type_symbol
 _atom_site_label
 _atom_site_symmetry_multiplicity
 _atom_site_fract_x
 _atom_site_fract_y
 _atom_site_fract_z
 _atom_site_occupancy
  K  K1  1  0.500000  0.000000  0.500000  1.0
  K  K2  1  0.000000  0.500000  0.500000  1.0
  Al  Al3  1  0.500000  0.500000  0.000000  1.0
  Al  Al4  1  0.000000  0.000000  0.000000  1.0
  F  F5  1  0.700044  0.200044  0.000000  1.0
  F  F6  1  0.799956  0.700044  0.000000  1.0
  F  F7  1  0.200044  0.299956  0.000000  1.0
  F  F8  1  0.299956  0.799956  0.000000  1.0
  F  F9  1  0.000000  0.000000  0.284667  1.0
  F  F10  1  0.500000  0.500000  0.715333  1.0
  F  F11  1  0.000000  0.000000  0.715333  1.0
  F  F12  1  0.500000  0.500000  0.284667  1.0
