# generated using pymatgen
data_Tb3Si
_symmetry_space_group_name_H-M   'P 1'
_cell_length_a   6.72346530
_cell_length_b   6.72346565
_cell_length_c   5.10108008
_cell_angle_alpha   90.00000000
_cell_angle_beta   90.00000000
_cell_angle_gamma   120.00000318
_symmetry_Int_Tables_number   1
_chemical_formula_structural   Tb3Si
_chemical_formula_sum   'Tb6 Si2'
_cell_volume   199.70048399
_cell_formula_units_Z   2
loop_
 _symmetry_equiv_pos_site_id
 _symmetry_equiv_pos_as_xyz
  1  'x, y, z'
loop_
 _atom_site_type_symbol
 _atom_site_label
 _atom_site_symmetry_multiplicity
 _atom_site_fract_x
 _atom_site_fract_y
 _atom_site_fract_z
 _atom_site_occupancy
  Tb  Tb1  1  0.177555  0.355110  0.249998  1.0
  Tb  Tb2  1  0.644891  0.822447  0.249998  1.0
  Tb  Tb3  1  0.177554  0.822447  0.249998  1.0
  Tb  Tb4  1  0.822445  0.644890  0.749999  1.0
  Tb  Tb5  1  0.355109  0.177554  0.749999  1.0
  Tb  Tb6  1  0.822446  0.177554  0.749999  1.0
  Si  Si7  1  0.333333  0.666667  0.749999  1.0
  Si  Si8  1  0.666666  0.333333  0.249998  1.0
