# generated using pymatgen
data_DyAsO4
_symmetry_space_group_name_H-M   'P 1'
_cell_length_a   5.97518081
_cell_length_b   5.97518080
_cell_length_c   5.97518080
_cell_angle_alpha   106.45872065
_cell_angle_beta   106.45872061
_cell_angle_gamma   115.68041451
_symmetry_Int_Tables_number   1
_chemical_formula_structural   DyAsO4
_chemical_formula_sum   'Dy2 As2 O8'
_cell_volume   162.76003294
_cell_formula_units_Z   2
loop_
 _symmetry_equiv_pos_site_id
 _symmetry_equiv_pos_as_xyz
  1  'x, y, z'
loop_
 _atom_site_type_symbol
 _atom_site_label
 _atom_site_symmetry_multiplicity
 _atom_site_fract_x
 _atom_site_fract_y
 _atom_site_fract_z
 _atom_site_occupancy
  Dy  Dy1  1  0.375000  0.625000  0.750000  1.0
  Dy  Dy2  1  0.625000  0.375000  0.250000  1.0
  As  As3  1  0.875000  0.125000  0.750000  1.0
  As  As4  1  0.125000  0.875000  0.250000  1.0
  O  O5  1  0.302389  0.233805  0.431416  1.0
  O  O6  1  0.870973  0.302389  0.568584  1.0
  O  O7  1  0.233805  0.302389  0.931416  1.0
  O  O8  1  0.302389  0.870973  0.068584  1.0
  O  O9  1  0.129027  0.697611  0.431416  1.0
  O  O10  1  0.697611  0.766195  0.568584  1.0
  O  O11  1  0.697611  0.129027  0.931416  1.0
  O  O12  1  0.766195  0.697611  0.068584  1.0
