# generated using pymatgen
data_Mg2SiO4
_symmetry_space_group_name_H-M   'P 1'
_cell_length_a   5.76531080
_cell_length_b   5.76531080
_cell_length_c   5.76531080
_cell_angle_alpha   60.00000000
_cell_angle_beta   60.00000000
_cell_angle_gamma   60.00000000
_symmetry_Int_Tables_number   1
_chemical_formula_structural   Mg2SiO4
_chemical_formula_sum   'Mg4 Si2 O8'
_cell_volume   135.50433076
_cell_formula_units_Z   2
loop_
 _symmetry_equiv_pos_site_id
 _symmetry_equiv_pos_as_xyz
  1  'x, y, z'
loop_
 _atom_site_type_symbol
 _atom_site_label
 _atom_site_symmetry_multiplicity
 _atom_site_fract_x
 _atom_site_fract_y
 _atom_site_fract_z
 _atom_site_occupancy
  Mg  Mg1  1  0.875000  0.375000  0.375000  1.0
  Mg  Mg2  1  0.375000  0.875000  0.375000  1.0
  Mg  Mg3  1  0.375000  0.375000  0.875000  1.0
  Mg  Mg4  1  0.375000  0.375000  0.375000  1.0
  Si  Si5  1  0.750000  0.750000  0.750000  1.0
  Si  Si6  1  0.000000  0.000000  0.000000  1.0
  O  O7  1  0.642806  0.119065  0.119065  1.0
  O  O8  1  0.119065  0.642806  0.119065  1.0
  O  O9  1  0.119065  0.119065  0.642806  1.0
  O  O10  1  0.119065  0.119065  0.119065  1.0
  O  O11  1  0.107194  0.630935  0.630935  1.0
  O  O12  1  0.630935  0.107194  0.630935  1.0
  O  O13  1  0.630935  0.630935  0.107194  1.0
  O  O14  1  0.630935  0.630935  0.630935  1.0
