# generated using pymatgen
data_ErSi
_symmetry_space_group_name_H-M   'P 1'
_cell_length_a   3.80439282
_cell_length_b   4.23880927
_cell_length_c   5.63162966
_cell_angle_alpha   112.10712565
_cell_angle_beta   90.00000000
_cell_angle_gamma   90.00000000
_symmetry_Int_Tables_number   1
_chemical_formula_structural   ErSi
_chemical_formula_sum   'Er2 Si2'
_cell_volume   84.13955771
_cell_formula_units_Z   2
loop_
 _symmetry_equiv_pos_site_id
 _symmetry_equiv_pos_as_xyz
  1  'x, y, z'
loop_
 _atom_site_type_symbol
 _atom_site_label
 _atom_site_symmetry_multiplicity
 _atom_site_fract_x
 _atom_site_fract_y
 _atom_site_fract_z
 _atom_site_occupancy
  Er  Er1  1  0.250000  0.859793  0.719585  1.0
  Er  Er2  1  0.750000  0.140207  0.280415  1.0
  Si  Si3  1  0.250000  0.577324  0.154649  1.0
  Si  Si4  1  0.750000  0.422676  0.845351  1.0
