# generated using pymatgen
data_U2SbN2
_symmetry_space_group_name_H-M   'P 1'
_cell_length_a   3.86428874
_cell_length_b   3.86428873
_cell_length_c   6.75380231
_cell_angle_alpha   106.62356316
_cell_angle_beta   106.62356316
_cell_angle_gamma   90.00000003
_symmetry_Int_Tables_number   1
_chemical_formula_structural   U2SbN2
_chemical_formula_sum   'U2 Sb1 N2'
_cell_volume   92.22997181
_cell_formula_units_Z   1
loop_
 _symmetry_equiv_pos_site_id
 _symmetry_equiv_pos_as_xyz
  1  'x, y, z'
loop_
 _atom_site_type_symbol
 _atom_site_label
 _atom_site_symmetry_multiplicity
 _atom_site_fract_x
 _atom_site_fract_y
 _atom_site_fract_z
 _atom_site_occupancy
  U  U1  1  0.343230  0.343230  0.686460  1.0
  U  U2  1  0.656770  0.656770  0.313540  1.0
  Sb  Sb3  1  0.000000  0.000000  0.000000  1.0
  N  N4  1  0.250000  0.750000  0.500000  1.0
  N  N5  1  0.750000  0.250000  0.500000  1.0
