# generated using pymatgen
data_ScAu3
_symmetry_space_group_name_H-M   'P 1'
_cell_length_a   5.95818969
_cell_length_b   5.95818969
_cell_length_c   4.84536727
_cell_angle_alpha   90.00000000
_cell_angle_beta   90.00000000
_cell_angle_gamma   120.00000005
_symmetry_Int_Tables_number   1
_chemical_formula_structural   ScAu3
_chemical_formula_sum   'Sc2 Au6'
_cell_volume   148.96559794
_cell_formula_units_Z   2
loop_
 _symmetry_equiv_pos_site_id
 _symmetry_equiv_pos_as_xyz
  1  'x, y, z'
loop_
 _atom_site_type_symbol
 _atom_site_label
 _atom_site_symmetry_multiplicity
 _atom_site_fract_x
 _atom_site_fract_y
 _atom_site_fract_z
 _atom_site_occupancy
  Sc  Sc1  1  0.333334  0.666668  0.750000  1.0
  Sc  Sc2  1  0.666666  0.333333  0.250000  1.0
  Au  Au3  1  0.167399  0.334798  0.250000  1.0
  Au  Au4  1  0.665202  0.832602  0.250000  1.0
  Au  Au5  1  0.167398  0.832602  0.250000  1.0
  Au  Au6  1  0.832601  0.665203  0.750000  1.0
  Au  Au7  1  0.334799  0.167399  0.750000  1.0
  Au  Au8  1  0.832600  0.167399  0.750000  1.0
