# generated using pymatgen
data_Dy(SiPt)2
_symmetry_space_group_name_H-M   'P 1'
_cell_length_a   4.19418664
_cell_length_b   4.19418684
_cell_length_c   5.75777932
_cell_angle_alpha   111.35953095
_cell_angle_beta   111.35953247
_cell_angle_gamma   89.99999326
_symmetry_Int_Tables_number   1
_chemical_formula_structural   Dy(SiPt)2
_chemical_formula_sum   'Dy1 Si2 Pt2'
_cell_volume   86.81650432
_cell_formula_units_Z   1
loop_
 _symmetry_equiv_pos_site_id
 _symmetry_equiv_pos_as_xyz
  1  'x, y, z'
loop_
 _atom_site_type_symbol
 _atom_site_label
 _atom_site_symmetry_multiplicity
 _atom_site_fract_x
 _atom_site_fract_y
 _atom_site_fract_z
 _atom_site_occupancy
  Dy  Dy1  1  0.000000  0.000000  0.000000  1.0
  Si  Si2  1  0.617659  0.617659  0.235319  1.0
  Si  Si3  1  0.382341  0.382341  0.764681  1.0
  Pt  Pt4  1  0.250000  0.750000  0.500000  1.0
  Pt  Pt5  1  0.750000  0.250000  0.500000  1.0
