# generated using pymatgen
data_ThSiO4
_symmetry_space_group_name_H-M   'P 1'
_cell_length_a   6.00445763
_cell_length_b   6.00445771
_cell_length_c   6.00445759
_cell_angle_alpha   106.30319595
_cell_angle_beta   106.30319150
_cell_angle_gamma   116.01201208
_symmetry_Int_Tables_number   1
_chemical_formula_structural   ThSiO4
_chemical_formula_sum   'Th2 Si2 O8'
_cell_volume   165.00080190
_cell_formula_units_Z   2
loop_
 _symmetry_equiv_pos_site_id
 _symmetry_equiv_pos_as_xyz
  1  'x, y, z'
loop_
 _atom_site_type_symbol
 _atom_site_label
 _atom_site_symmetry_multiplicity
 _atom_site_fract_x
 _atom_site_fract_y
 _atom_site_fract_z
 _atom_site_occupancy
  Th  Th1  1  0.625000  0.375000  0.250000  1.0
  Th  Th2  1  0.375000  0.625000  0.750000  1.0
  Si  Si3  1  0.125000  0.875000  0.250000  1.0
  Si  Si4  1  0.875000  0.125000  0.750000  1.0
  O  O5  1  0.135040  0.708569  0.426469  1.0
  O  O6  1  0.708569  0.782100  0.573531  1.0
  O  O7  1  0.708569  0.135040  0.926469  1.0
  O  O8  1  0.782100  0.708569  0.073531  1.0
  O  O9  1  0.291431  0.864960  0.073531  1.0
  O  O10  1  0.217900  0.291431  0.926469  1.0
  O  O11  1  0.864960  0.291431  0.573531  1.0
  O  O12  1  0.291431  0.217900  0.426469  1.0
