# generated using pymatgen
data_U(CrSi)2
_symmetry_space_group_name_H-M   'P 1'
_cell_length_a   3.92543436
_cell_length_b   3.92543443
_cell_length_c   5.80361261
_cell_angle_alpha   109.76656939
_cell_angle_beta   109.76657009
_cell_angle_gamma   90.00000359
_symmetry_Int_Tables_number   1
_chemical_formula_structural   U(CrSi)2
_chemical_formula_sum   'U1 Cr2 Si2'
_cell_volume   78.53681622
_cell_formula_units_Z   1
loop_
 _symmetry_equiv_pos_site_id
 _symmetry_equiv_pos_as_xyz
  1  'x, y, z'
loop_
 _atom_site_type_symbol
 _atom_site_label
 _atom_site_symmetry_multiplicity
 _atom_site_fract_x
 _atom_site_fract_y
 _atom_site_fract_z
 _atom_site_occupancy
  U  U1  1  0.000000  0.000000  0.000000  1.0
  Cr  Cr2  1  0.250000  0.750000  0.500000  1.0
  Cr  Cr3  1  0.750000  0.250000  0.500000  1.0
  Si  Si4  1  0.616228  0.616228  0.232456  1.0
  Si  Si5  1  0.383772  0.383772  0.767544  1.0
