# generated using pymatgen
data_Ba(FeS2)2
_symmetry_space_group_name_H-M   'P 1'
_cell_length_a   5.05638706
_cell_length_b   5.98719629
_cell_length_c   5.99325862
_cell_angle_alpha   80.03933477
_cell_angle_beta   65.43886338
_cell_angle_gamma   65.46687446
_symmetry_Int_Tables_number   1
_chemical_formula_structural   Ba(FeS2)2
_chemical_formula_sum   'Ba1 Fe2 S4'
_cell_volume   150.12277978
_cell_formula_units_Z   1
loop_
 _symmetry_equiv_pos_site_id
 _symmetry_equiv_pos_as_xyz
  1  'x, y, z'
loop_
 _atom_site_type_symbol
 _atom_site_label
 _atom_site_symmetry_multiplicity
 _atom_site_fract_x
 _atom_site_fract_y
 _atom_site_fract_z
 _atom_site_occupancy
  Ba  Ba1  1  0.926225  0.003020  0.001125  1.0
  Fe  Fe2  1  0.246892  0.499575  0.499146  1.0
  Fe  Fe3  1  0.746572  0.499085  0.499926  1.0
  S  S4  1  0.184047  0.424935  0.192540  1.0
  S  S5  1  0.381320  0.805731  0.425908  1.0
  S  S6  1  0.608233  0.193345  0.575350  1.0
  S  S7  1  0.807711  0.574309  0.806005  1.0
