# generated using pymatgen
data_K2UO4
_symmetry_space_group_name_H-M   'P 1'
_cell_length_a   4.36297548
_cell_length_b   4.36297548
_cell_length_c   7.39535968
_cell_angle_alpha   107.15637498
_cell_angle_beta   107.15637495
_cell_angle_gamma   89.99999998
_symmetry_Int_Tables_number   1
_chemical_formula_structural   K2UO4
_chemical_formula_sum   'K2 U1 O4'
_cell_volume   127.94040994
_cell_formula_units_Z   1
loop_
 _symmetry_equiv_pos_site_id
 _symmetry_equiv_pos_as_xyz
  1  'x, y, z'
loop_
 _atom_site_type_symbol
 _atom_site_label
 _atom_site_symmetry_multiplicity
 _atom_site_fract_x
 _atom_site_fract_y
 _atom_site_fract_z
 _atom_site_occupancy
  K  K1  1  0.347698  0.347698  0.695396  1.0
  K  K2  1  0.652302  0.652302  0.304604  1.0
  U  U3  1  0.000000  0.000000  0.000000  1.0
  O  O4  1  0.500000  0.000000  0.000000  1.0
  O  O5  1  0.000000  0.500000  0.000000  1.0
  O  O6  1  0.854817  0.854817  0.709634  1.0
  O  O7  1  0.145183  0.145183  0.290366  1.0
