# generated using pymatgen
data_Ti3SiC2
_symmetry_space_group_name_H-M   'P 1'
_cell_length_a   3.07564421
_cell_length_b   3.07564421
_cell_length_c   17.73591335
_cell_angle_alpha   90.00000000
_cell_angle_beta   90.00000000
_cell_angle_gamma   120.02329980
_symmetry_Int_Tables_number   1
_chemical_formula_structural   Ti3SiC2
_chemical_formula_sum   'Ti6 Si2 C4'
_cell_volume   145.26278508
_cell_formula_units_Z   2
loop_
 _symmetry_equiv_pos_site_id
 _symmetry_equiv_pos_as_xyz
  1  'x, y, z'
loop_
 _atom_site_type_symbol
 _atom_site_label
 _atom_site_symmetry_multiplicity
 _atom_site_fract_x
 _atom_site_fract_y
 _atom_site_fract_z
 _atom_site_occupancy
  Ti  Ti1  1  0.000000  0.000000  0.500000  1.0
  Ti  Ti2  1  0.000000  0.000000  0.000000  1.0
  Ti  Ti3  1  0.333288  0.666712  0.634891  1.0
  Ti  Ti4  1  0.666712  0.333288  0.365109  1.0
  Ti  Ti5  1  0.666712  0.333288  0.134891  1.0
  Ti  Ti6  1  0.333288  0.666712  0.865109  1.0
  Si  Si7  1  0.000013  0.999987  0.750000  1.0
  Si  Si8  1  0.999987  0.000013  0.250000  1.0
  C  C9  1  0.333323  0.666677  0.072294  1.0
  C  C10  1  0.666677  0.333323  0.927706  1.0
  C  C11  1  0.666677  0.333323  0.572294  1.0
  C  C12  1  0.333323  0.666677  0.427706  1.0
