# generated using pymatgen
data_Ca2CuO3
_symmetry_space_group_name_H-M   'P 1'
_cell_length_a   3.28981064
_cell_length_b   3.83222686
_cell_length_c   6.59456380
_cell_angle_alpha   106.89145783
_cell_angle_beta   104.44399389
_cell_angle_gamma   89.99999996
_symmetry_Int_Tables_number   1
_chemical_formula_structural   Ca2CuO3
_chemical_formula_sum   'Ca2 Cu1 O3'
_cell_volume   76.80223088
_cell_formula_units_Z   1
loop_
 _symmetry_equiv_pos_site_id
 _symmetry_equiv_pos_as_xyz
  1  'x, y, z'
loop_
 _atom_site_type_symbol
 _atom_site_label
 _atom_site_symmetry_multiplicity
 _atom_site_fract_x
 _atom_site_fract_y
 _atom_site_fract_z
 _atom_site_occupancy
  Ca  Ca1  1  0.350846  0.850846  0.701692  1.0
  Ca  Ca2  1  0.649154  0.149154  0.298308  1.0
  Cu  Cu3  1  0.000000  0.500000  0.000000  1.0
  O  O4  1  0.000000  0.000000  0.000000  1.0
  O  O5  1  0.839443  0.339443  0.678885  1.0
  O  O6  1  0.160557  0.660557  0.321115  1.0
