# generated using pymatgen
data_TbCoC2
_symmetry_space_group_name_H-M   'P 1'
_cell_length_a   3.59979742
_cell_length_b   3.75653014
_cell_length_c   3.75653014
_cell_angle_alpha   106.15080961
_cell_angle_beta   90.00000000
_cell_angle_gamma   90.00000000
_symmetry_Int_Tables_number   1
_chemical_formula_structural   TbCoC2
_chemical_formula_sum   'Tb1 Co1 C2'
_cell_volume   48.79373254
_cell_formula_units_Z   1
loop_
 _symmetry_equiv_pos_site_id
 _symmetry_equiv_pos_as_xyz
  1  'x, y, z'
loop_
 _atom_site_type_symbol
 _atom_site_label
 _atom_site_symmetry_multiplicity
 _atom_site_fract_x
 _atom_site_fract_y
 _atom_site_fract_z
 _atom_site_occupancy
  Tb  Tb1  1  0.000000  0.004001  0.995999  1.0
  Co  Co2  1  0.500000  0.620588  0.379412  1.0
  C  C3  1  0.500000  0.157387  0.536975  1.0
  C  C4  1  0.500000  0.463025  0.842613  1.0
