# generated using pymatgen
data_Sc3FeC4
_symmetry_space_group_name_H-M   'P 1'
_cell_length_a   3.39362487
_cell_length_b   4.35622933
_cell_length_c   6.65642683
_cell_angle_alpha   109.10011533
_cell_angle_beta   104.76845415
_cell_angle_gamma   89.99999994
_symmetry_Int_Tables_number   1
_chemical_formula_structural   Sc3FeC4
_chemical_formula_sum   'Sc3 Fe1 C4'
_cell_volume   89.53994657
_cell_formula_units_Z   1
loop_
 _symmetry_equiv_pos_site_id
 _symmetry_equiv_pos_as_xyz
  1  'x, y, z'
loop_
 _atom_site_type_symbol
 _atom_site_label
 _atom_site_symmetry_multiplicity
 _atom_site_fract_x
 _atom_site_fract_y
 _atom_site_fract_z
 _atom_site_occupancy
  Sc  Sc1  1  0.000000  0.500000  0.000000  1.0
  Sc  Sc2  1  0.188500  0.188500  0.377000  1.0
  Sc  Sc3  1  0.811500  0.811500  0.623000  1.0
  Fe  Fe4  1  0.500000  0.000000  0.000000  1.0
  C  C5  1  0.376084  0.210283  0.752169  1.0
  C  C6  1  0.623916  0.789717  0.247831  1.0
  C  C7  1  0.623916  0.458115  0.247831  1.0
  C  C8  1  0.376084  0.541885  0.752169  1.0
