# generated using pymatgen
data_CdSnAs2
_symmetry_space_group_name_H-M   'P 1'
_cell_length_a   6.22141032
_cell_length_b   6.22141031
_cell_length_c   7.52243911
_cell_angle_alpha   114.42636700
_cell_angle_beta   114.42636701
_cell_angle_gamma   89.99999995
_symmetry_Int_Tables_number   1
_chemical_formula_structural   CdSnAs2
_chemical_formula_sum   'Cd2 Sn2 As4'
_cell_volume   236.18277420
_cell_formula_units_Z   2
loop_
 _symmetry_equiv_pos_site_id
 _symmetry_equiv_pos_as_xyz
  1  'x, y, z'
loop_
 _atom_site_type_symbol
 _atom_site_label
 _atom_site_symmetry_multiplicity
 _atom_site_fract_x
 _atom_site_fract_y
 _atom_site_fract_z
 _atom_site_occupancy
  Cd  Cd1  1  0.250000  0.750000  0.500000  1.0
  Cd  Cd2  1  0.000000  0.000000  0.000000  1.0
  Sn  Sn3  1  0.500000  0.500000  0.000000  1.0
  Sn  Sn4  1  0.750000  0.250000  0.500000  1.0
  As  As5  1  0.871552  0.875000  0.250000  1.0
  As  As6  1  0.625000  0.128448  0.750000  1.0
  As  As7  1  0.378448  0.375000  0.250000  1.0
  As  As8  1  0.125000  0.621552  0.750000  1.0
