# generated using pymatgen
data_LiTi2O4
_symmetry_space_group_name_H-M   'P 1'
_cell_length_a   5.98603246
_cell_length_b   5.98603246
_cell_length_c   5.98603246
_cell_angle_alpha   60.00000002
_cell_angle_beta   60.00000001
_cell_angle_gamma   59.99999999
_symmetry_Int_Tables_number   1
_chemical_formula_structural   LiTi2O4
_chemical_formula_sum   'Li2 Ti4 O8'
_cell_volume   151.67087939
_cell_formula_units_Z   2
loop_
 _symmetry_equiv_pos_site_id
 _symmetry_equiv_pos_as_xyz
  1  'x, y, z'
loop_
 _atom_site_type_symbol
 _atom_site_label
 _atom_site_symmetry_multiplicity
 _atom_site_fract_x
 _atom_site_fract_y
 _atom_site_fract_z
 _atom_site_occupancy
  Li  Li1  1  0.125000  0.125000  0.125000  1.0
  Li  Li2  1  0.875000  0.875000  0.875000  1.0
  Ti  Ti3  1  0.500000  0.500000  0.500000  1.0
  Ti  Ti4  1  0.500000  0.000000  0.500000  1.0
  Ti  Ti5  1  0.000000  0.500000  0.500000  1.0
  Ti  Ti6  1  0.500000  0.500000  0.000000  1.0
  O  O7  1  0.262610  0.262610  0.712171  1.0
  O  O8  1  0.737390  0.737390  0.737390  1.0
  O  O9  1  0.737390  0.737390  0.287829  1.0
  O  O10  1  0.262610  0.712171  0.262610  1.0
  O  O11  1  0.262610  0.262610  0.262610  1.0
  O  O12  1  0.287829  0.737390  0.737390  1.0
  O  O13  1  0.737390  0.287829  0.737390  1.0
  O  O14  1  0.712171  0.262610  0.262610  1.0
