# generated using pymatgen
data_MgSiO3
_symmetry_space_group_name_H-M   'P 1'
_cell_length_a   5.34617641
_cell_length_b   5.34617625
_cell_length_c   5.34617572
_cell_angle_alpha   53.18962064
_cell_angle_beta   53.18961806
_cell_angle_gamma   53.18962409
_symmetry_Int_Tables_number   1
_chemical_formula_structural   MgSiO3
_chemical_formula_sum   'Mg2 Si2 O6'
_cell_volume   90.81103826
_cell_formula_units_Z   2
loop_
 _symmetry_equiv_pos_site_id
 _symmetry_equiv_pos_as_xyz
  1  'x, y, z'
loop_
 _atom_site_type_symbol
 _atom_site_label
 _atom_site_symmetry_multiplicity
 _atom_site_fract_x
 _atom_site_fract_y
 _atom_site_fract_z
 _atom_site_occupancy
  Mg  Mg1  1  0.360424  0.360424  0.360424  1.0
  Mg  Mg2  1  0.639576  0.639576  0.639576  1.0
  Si  Si3  1  0.157903  0.157903  0.157903  1.0
  Si  Si4  1  0.842097  0.842097  0.842097  1.0
  O  O5  1  0.044913  0.796564  0.437887  1.0
  O  O6  1  0.796564  0.437887  0.044913  1.0
  O  O7  1  0.437887  0.044913  0.796564  1.0
  O  O8  1  0.955087  0.203436  0.562113  1.0
  O  O9  1  0.562113  0.955087  0.203436  1.0
  O  O10  1  0.203436  0.562113  0.955087  1.0
