# generated using pymatgen
data_Y(NiGe)2
_symmetry_space_group_name_H-M   'P 1'
_cell_length_a   4.06680165
_cell_length_b   4.06680165
_cell_length_c   5.69245679
_cell_angle_alpha   110.92893309
_cell_angle_beta   110.92893316
_cell_angle_gamma   90.00000000
_symmetry_Int_Tables_number   1
_chemical_formula_structural   Y(NiGe)2
_chemical_formula_sum   'Y1 Ni2 Ge2'
_cell_volume   81.25054324
_cell_formula_units_Z   1
loop_
 _symmetry_equiv_pos_site_id
 _symmetry_equiv_pos_as_xyz
  1  'x, y, z'
loop_
 _atom_site_type_symbol
 _atom_site_label
 _atom_site_symmetry_multiplicity
 _atom_site_fract_x
 _atom_site_fract_y
 _atom_site_fract_z
 _atom_site_occupancy
  Y  Y1  1  0.000000  0.000000  0.000000  1.0
  Ni  Ni2  1  0.750000  0.250000  0.500000  1.0
  Ni  Ni3  1  0.250000  0.750000  0.500000  1.0
  Ge  Ge4  1  0.628606  0.628606  0.257212  1.0
  Ge  Ge5  1  0.371394  0.371394  0.742788  1.0
