# generated using pymatgen
data_Pr(CoSi)2
_symmetry_space_group_name_H-M   'P 1'
_cell_length_a   3.95417589
_cell_length_b   3.95417589
_cell_length_c   5.76156825
_cell_angle_alpha   110.06896721
_cell_angle_beta   110.06896719
_cell_angle_gamma   90.00000000
_symmetry_Int_Tables_number   1
_chemical_formula_structural   Pr(CoSi)2
_chemical_formula_sum   'Pr1 Co2 Si2'
_cell_volume   78.76620803
_cell_formula_units_Z   1
loop_
 _symmetry_equiv_pos_site_id
 _symmetry_equiv_pos_as_xyz
  1  'x, y, z'
loop_
 _atom_site_type_symbol
 _atom_site_label
 _atom_site_symmetry_multiplicity
 _atom_site_fract_x
 _atom_site_fract_y
 _atom_site_fract_z
 _atom_site_occupancy
  Pr  Pr1  1  0.000000  0.000000  0.000000  1.0
  Co  Co2  1  0.250000  0.750000  0.500000  1.0
  Co  Co3  1  0.750000  0.250000  0.500000  1.0
  Si  Si4  1  0.634389  0.634389  0.268778  1.0
  Si  Si5  1  0.365611  0.365611  0.731222  1.0
