# generated using pymatgen
data_Sr(NiGe)2
_symmetry_space_group_name_H-M   'P 1'
_cell_length_a   4.19293957
_cell_length_b   4.19293957
_cell_length_c   5.94197614
_cell_angle_alpha   110.66012051
_cell_angle_beta   110.66012052
_cell_angle_gamma   89.99999993
_symmetry_Int_Tables_number   1
_chemical_formula_structural   Sr(NiGe)2
_chemical_formula_sum   'Sr1 Ni2 Ge2'
_cell_volume   90.53093809
_cell_formula_units_Z   1
loop_
 _symmetry_equiv_pos_site_id
 _symmetry_equiv_pos_as_xyz
  1  'x, y, z'
loop_
 _atom_site_type_symbol
 _atom_site_label
 _atom_site_symmetry_multiplicity
 _atom_site_fract_x
 _atom_site_fract_y
 _atom_site_fract_z
 _atom_site_occupancy
  Sr  Sr1  1  0.000000  0.000000  0.000000  1.0
  Ni  Ni2  1  0.750000  0.250000  0.500000  1.0
  Ni  Ni3  1  0.250000  0.750000  0.500000  1.0
  Ge  Ge4  1  0.640175  0.640175  0.280350  1.0
  Ge  Ge5  1  0.359825  0.359825  0.719650  1.0
