# generated using pymatgen
data_Zn(RhO2)2
_symmetry_space_group_name_H-M   'P 1'
_cell_length_a   6.11774637
_cell_length_b   6.11774638
_cell_length_c   6.11774637
_cell_angle_alpha   59.99999999
_cell_angle_beta   59.99999996
_cell_angle_gamma   59.99999997
_symmetry_Int_Tables_number   1
_chemical_formula_structural   Zn(RhO2)2
_chemical_formula_sum   'Zn2 Rh4 O8'
_cell_volume   161.90468150
_cell_formula_units_Z   2
loop_
 _symmetry_equiv_pos_site_id
 _symmetry_equiv_pos_as_xyz
  1  'x, y, z'
loop_
 _atom_site_type_symbol
 _atom_site_label
 _atom_site_symmetry_multiplicity
 _atom_site_fract_x
 _atom_site_fract_y
 _atom_site_fract_z
 _atom_site_occupancy
  Zn  Zn1  1  0.875000  0.875000  0.875000  1.0
  Zn  Zn2  1  0.125000  0.125000  0.125000  1.0
  Rh  Rh3  1  0.500000  0.500000  0.000000  1.0
  Rh  Rh4  1  0.500000  0.500000  0.500000  1.0
  Rh  Rh5  1  0.000000  0.500000  0.500000  1.0
  Rh  Rh6  1  0.500000  0.000000  0.500000  1.0
  O  O7  1  0.739540  0.739540  0.739540  1.0
  O  O8  1  0.260460  0.260460  0.718621  1.0
  O  O9  1  0.260460  0.718621  0.260460  1.0
  O  O10  1  0.718621  0.260460  0.260460  1.0
  O  O11  1  0.739540  0.281379  0.739540  1.0
  O  O12  1  0.281379  0.739540  0.739540  1.0
  O  O13  1  0.260460  0.260460  0.260460  1.0
  O  O14  1  0.739540  0.739540  0.281379  1.0
