# generated using pymatgen
data_Sm(NiGe)2
_symmetry_space_group_name_H-M   'P 1'
_cell_length_a   4.11412765
_cell_length_b   4.11412765
_cell_length_c   5.71622892
_cell_angle_alpha   111.09183135
_cell_angle_beta   111.09183143
_cell_angle_gamma   90.00000003
_symmetry_Int_Tables_number   1
_chemical_formula_structural   Sm(NiGe)2
_chemical_formula_sum   'Sm1 Ni2 Ge2'
_cell_volume   83.28620983
_cell_formula_units_Z   1
loop_
 _symmetry_equiv_pos_site_id
 _symmetry_equiv_pos_as_xyz
  1  'x, y, z'
loop_
 _atom_site_type_symbol
 _atom_site_label
 _atom_site_symmetry_multiplicity
 _atom_site_fract_x
 _atom_site_fract_y
 _atom_site_fract_z
 _atom_site_occupancy
  Sm  Sm1  1  0.000000  0.000000  0.000000  1.0
  Ni  Ni2  1  0.750000  0.250000  0.500000  1.0
  Ni  Ni3  1  0.250000  0.750000  0.500000  1.0
  Ge  Ge4  1  0.630453  0.630453  0.260905  1.0
  Ge  Ge5  1  0.369547  0.369547  0.739095  1.0
