# generated using pymatgen
data_MgCu
_symmetry_space_group_name_H-M   'P 1'
_cell_length_a   3.15925859
_cell_length_b   4.46131752
_cell_length_c   4.43673694
_cell_angle_alpha   90.00038554
_cell_angle_beta   89.99926527
_cell_angle_gamma   89.99957034
_symmetry_Int_Tables_number   1
_chemical_formula_structural   MgCu
_chemical_formula_sum   'Mg2 Cu2'
_cell_volume   62.53339224
_cell_formula_units_Z   2
loop_
 _symmetry_equiv_pos_site_id
 _symmetry_equiv_pos_as_xyz
  1  'x, y, z'
loop_
 _atom_site_type_symbol
 _atom_site_label
 _atom_site_symmetry_multiplicity
 _atom_site_fract_x
 _atom_site_fract_y
 _atom_site_fract_z
 _atom_site_occupancy
  Mg  Mg1  1  0.499997  0.569465  0.000001  1.0
  Mg  Mg2  1  0.499996  0.097384  0.500002  1.0
  Cu  Cu3  1  0.000007  0.056648  0.999995  1.0
  Cu  Cu4  1  0.999999  0.609836  0.500001  1.0
