# generated using pymatgen
data_YAgSn
_symmetry_space_group_name_H-M   'P 1'
_cell_length_a   4.74822425
_cell_length_b   4.74822425
_cell_length_c   7.43560658
_cell_angle_alpha   90.00000000
_cell_angle_beta   90.00000000
_cell_angle_gamma   120.00000007
_symmetry_Int_Tables_number   1
_chemical_formula_structural   YAgSn
_chemical_formula_sum   'Y2 Ag2 Sn2'
_cell_volume   145.18089784
_cell_formula_units_Z   2
loop_
 _symmetry_equiv_pos_site_id
 _symmetry_equiv_pos_as_xyz
  1  'x, y, z'
loop_
 _atom_site_type_symbol
 _atom_site_label
 _atom_site_symmetry_multiplicity
 _atom_site_fract_x
 _atom_site_fract_y
 _atom_site_fract_z
 _atom_site_occupancy
  Y  Y1  1  0.000000  0.000000  0.999287  1.0
  Y  Y2  1  0.000000  0.000000  0.499287  1.0
  Ag  Ag3  1  0.666667  0.333333  0.310628  1.0
  Ag  Ag4  1  0.333333  0.666667  0.810628  1.0
  Sn  Sn5  1  0.666667  0.333333  0.719085  1.0
  Sn  Sn6  1  0.333333  0.666667  0.219085  1.0
