# generated using pymatgen
data_Th(SiOs)2
_symmetry_space_group_name_H-M   'P 1'
_cell_length_a   4.23360688
_cell_length_b   4.23360634
_cell_length_c   5.74590376
_cell_angle_alpha   111.61710889
_cell_angle_beta   111.61710874
_cell_angle_gamma   89.99999277
_symmetry_Int_Tables_number   1
_chemical_formula_structural   Th(SiOs)2
_chemical_formula_sum   'Th1 Si2 Os2'
_cell_volume   87.90466537
_cell_formula_units_Z   1
loop_
 _symmetry_equiv_pos_site_id
 _symmetry_equiv_pos_as_xyz
  1  'x, y, z'
loop_
 _atom_site_type_symbol
 _atom_site_label
 _atom_site_symmetry_multiplicity
 _atom_site_fract_x
 _atom_site_fract_y
 _atom_site_fract_z
 _atom_site_occupancy
  Th  Th1  1  0.000000  0.000000  0.000000  1.0
  Si  Si2  1  0.630423  0.630423  0.260847  1.0
  Si  Si3  1  0.369577  0.369577  0.739153  1.0
  Os  Os4  1  0.750000  0.250000  0.500000  1.0
  Os  Os5  1  0.250000  0.750000  0.500000  1.0
