# generated using pymatgen
data_Pr2SO2
_symmetry_space_group_name_H-M   'P 1'
_cell_length_a   4.02051059
_cell_length_b   4.02051059
_cell_length_c   6.90128186
_cell_angle_alpha   90.00000000
_cell_angle_beta   90.00000000
_cell_angle_gamma   119.99999992
_symmetry_Int_Tables_number   1
_chemical_formula_structural   Pr2SO2
_chemical_formula_sum   'Pr2 S1 O2'
_cell_volume   96.61016368
_cell_formula_units_Z   1
loop_
 _symmetry_equiv_pos_site_id
 _symmetry_equiv_pos_as_xyz
  1  'x, y, z'
loop_
 _atom_site_type_symbol
 _atom_site_label
 _atom_site_symmetry_multiplicity
 _atom_site_fract_x
 _atom_site_fract_y
 _atom_site_fract_z
 _atom_site_occupancy
  Pr  Pr1  1  0.666667  0.333333  0.720002  1.0
  Pr  Pr2  1  0.333333  0.666667  0.279998  1.0
  S  S3  1  0.000000  0.000000  0.000000  1.0
  O  O4  1  0.333333  0.666667  0.629461  1.0
  O  O5  1  0.666667  0.333333  0.370539  1.0
