# generated using pymatgen
data_RbYbO3
_symmetry_space_group_name_H-M   'P 1'
_cell_length_a   4.54448228
_cell_length_b   4.54648956
_cell_length_c   4.53482104
_cell_angle_alpha   89.99962978
_cell_angle_beta   89.99991153
_cell_angle_gamma   90.00047180
_symmetry_Int_Tables_number   1
_chemical_formula_structural   RbYbO3
_chemical_formula_sum   'Rb1 Yb1 O3'
_cell_volume   93.69593845
_cell_formula_units_Z   1
loop_
 _symmetry_equiv_pos_site_id
 _symmetry_equiv_pos_as_xyz
  1  'x, y, z'
loop_
 _atom_site_type_symbol
 _atom_site_label
 _atom_site_symmetry_multiplicity
 _atom_site_fract_x
 _atom_site_fract_y
 _atom_site_fract_z
 _atom_site_occupancy
  Rb  Rb1  1  0.000000  0.000000  0.000000  1.0
  Yb  Yb2  1  0.500001  0.500001  0.500001  1.0
  O  O3  1  0.500003  0.500003  0.000001  1.0
  O  O4  1  0.500003  0.000001  0.500003  1.0
  O  O5  1  0.000001  0.500003  0.500003  1.0
