# generated using pymatgen
data_CrSi2
_symmetry_space_group_name_H-M   'P 1'
_cell_length_a   3.08293127
_cell_length_b   3.08293183
_cell_length_c   4.35295623
_cell_angle_alpha   110.73948230
_cell_angle_beta   110.73948568
_cell_angle_gamma   89.99998933
_symmetry_Int_Tables_number   1
_chemical_formula_structural   CrSi2
_chemical_formula_sum   'Cr1 Si2'
_cell_volume   35.81052144
_cell_formula_units_Z   1
loop_
 _symmetry_equiv_pos_site_id
 _symmetry_equiv_pos_as_xyz
  1  'x, y, z'
loop_
 _atom_site_type_symbol
 _atom_site_label
 _atom_site_symmetry_multiplicity
 _atom_site_fract_x
 _atom_site_fract_y
 _atom_site_fract_z
 _atom_site_occupancy
  Cr  Cr1  1  0.000000  0.000000  0.000000  1.0
  Si  Si2  1  0.662965  0.662965  0.325930  1.0
  Si  Si3  1  0.337035  0.337035  0.674070  1.0
