# generated using pymatgen
data_Ca3Tl
_symmetry_space_group_name_H-M   'P 1'
_cell_length_a   7.37089235
_cell_length_b   7.37089316
_cell_length_c   5.68336804
_cell_angle_alpha   90.00000000
_cell_angle_beta   90.00000000
_cell_angle_gamma   120.00000114
_symmetry_Int_Tables_number   1
_chemical_formula_structural   Ca3Tl
_chemical_formula_sum   'Ca6 Tl2'
_cell_volume   267.40935233
_cell_formula_units_Z   2
loop_
 _symmetry_equiv_pos_site_id
 _symmetry_equiv_pos_as_xyz
  1  'x, y, z'
loop_
 _atom_site_type_symbol
 _atom_site_label
 _atom_site_symmetry_multiplicity
 _atom_site_fract_x
 _atom_site_fract_y
 _atom_site_fract_z
 _atom_site_occupancy
  Ca  Ca1  1  0.174360  0.348720  0.250000  1.0
  Ca  Ca2  1  0.651281  0.825640  0.250000  1.0
  Ca  Ca3  1  0.174359  0.825640  0.250000  1.0
  Ca  Ca4  1  0.825640  0.651280  0.749999  1.0
  Ca  Ca5  1  0.348719  0.174360  0.749999  1.0
  Ca  Ca6  1  0.825641  0.174360  0.749999  1.0
  Tl  Tl7  1  0.333333  0.666667  0.749999  1.0
  Tl  Tl8  1  0.666667  0.333333  0.250000  1.0
