# generated using pymatgen
data_YbTa
_symmetry_space_group_name_H-M   'P 1'
_cell_length_a   3.10143438
_cell_length_b   3.10142522
_cell_length_c   5.39902569
_cell_angle_alpha   89.99905049
_cell_angle_beta   90.00094613
_cell_angle_gamma   120.00065048
_symmetry_Int_Tables_number   1
_chemical_formula_structural   YbTa
_chemical_formula_sum   'Yb1 Ta1'
_cell_volume   44.97457726
_cell_formula_units_Z   1
loop_
 _symmetry_equiv_pos_site_id
 _symmetry_equiv_pos_as_xyz
  1  'x, y, z'
loop_
 _atom_site_type_symbol
 _atom_site_label
 _atom_site_symmetry_multiplicity
 _atom_site_fract_x
 _atom_site_fract_y
 _atom_site_fract_z
 _atom_site_occupancy
  Yb  Yb1  1  0.333335  0.666665  0.250000  1.0
  Ta  Ta2  1  0.666665  0.333335  0.749999  1.0
