# generated using pymatgen
data_PmHo3
_symmetry_space_group_name_H-M   'P 1'
_cell_length_a   7.25786826
_cell_length_b   7.25796460
_cell_length_c   5.69297927
_cell_angle_alpha   90.00000000
_cell_angle_beta   90.00000000
_cell_angle_gamma   120.00323787
_symmetry_Int_Tables_number   1
_chemical_formula_structural   PmHo3
_chemical_formula_sum   'Pm2 Ho6'
_cell_volume   259.70480806
_cell_formula_units_Z   2
loop_
 _symmetry_equiv_pos_site_id
 _symmetry_equiv_pos_as_xyz
  1  'x, y, z'
loop_
 _atom_site_type_symbol
 _atom_site_label
 _atom_site_symmetry_multiplicity
 _atom_site_fract_x
 _atom_site_fract_y
 _atom_site_fract_z
 _atom_site_occupancy
  Pm  Pm1  1  0.333337  0.666668  0.749999  1.0
  Pm  Pm2  1  0.666675  0.333357  0.249999  1.0
  Ho  Ho3  1  0.165464  0.330917  0.249999  1.0
  Ho  Ho4  1  0.669090  0.834532  0.249999  1.0
  Ho  Ho5  1  0.165443  0.834531  0.249999  1.0
  Ho  Ho6  1  0.834558  0.669129  0.749999  1.0
  Ho  Ho7  1  0.330868  0.165434  0.749999  1.0
  Ho  Ho8  1  0.834562  0.165429  0.749999  1.0
