# generated using pymatgen
data_WN2
_symmetry_space_group_name_H-M   'P 1'
_cell_length_a   3.67768174
_cell_length_b   3.67768126
_cell_length_c   3.67768190
_cell_angle_alpha   53.65354011
_cell_angle_beta   53.65354695
_cell_angle_gamma   53.65355287
_symmetry_Int_Tables_number   1
_chemical_formula_structural   WN2
_chemical_formula_sum   'W1 N2'
_cell_volume   29.95238564
_cell_formula_units_Z   1
loop_
 _symmetry_equiv_pos_site_id
 _symmetry_equiv_pos_as_xyz
  1  'x, y, z'
loop_
 _atom_site_type_symbol
 _atom_site_label
 _atom_site_symmetry_multiplicity
 _atom_site_fract_x
 _atom_site_fract_y
 _atom_site_fract_z
 _atom_site_occupancy
  W  W1  1  0.000000  0.000000  0.000000  1.0
  N  N2  1  0.759516  0.759516  0.759516  1.0
  N  N3  1  0.240484  0.240484  0.240484  1.0
