# generated using pymatgen
data_GeAs
_symmetry_space_group_name_H-M   'P 1'
_cell_length_a   3.73318929
_cell_length_b   3.73318930
_cell_length_c   4.01788725
_cell_angle_alpha   117.68247354
_cell_angle_beta   117.68247372
_cell_angle_gamma   89.99999988
_symmetry_Int_Tables_number   1
_chemical_formula_structural   GeAs
_chemical_formula_sum   'Ge1 As1'
_cell_volume   42.21479067
_cell_formula_units_Z   1
loop_
 _symmetry_equiv_pos_site_id
 _symmetry_equiv_pos_as_xyz
  1  'x, y, z'
loop_
 _atom_site_type_symbol
 _atom_site_label
 _atom_site_symmetry_multiplicity
 _atom_site_fract_x
 _atom_site_fract_y
 _atom_site_fract_z
 _atom_site_occupancy
  Ge  Ge1  1  0.998054  0.998054  0.996109  1.0
  As  As2  1  0.415946  0.415946  0.831891  1.0
