# generated using pymatgen
data_Mn3ZnC
_symmetry_space_group_name_H-M   'P 1'
_cell_length_a   4.58497357
_cell_length_b   4.59782023
_cell_length_c   4.59535264
_cell_angle_alpha   90.00000623
_cell_angle_beta   90.00005455
_cell_angle_gamma   89.99988732
_symmetry_Int_Tables_number   1
_chemical_formula_structural   Mn3ZnC
_chemical_formula_sum   'Mn3 Zn1 C1'
_cell_volume   96.87409702
_cell_formula_units_Z   1
loop_
 _symmetry_equiv_pos_site_id
 _symmetry_equiv_pos_as_xyz
  1  'x, y, z'
loop_
 _atom_site_type_symbol
 _atom_site_label
 _atom_site_symmetry_multiplicity
 _atom_site_fract_x
 _atom_site_fract_y
 _atom_site_fract_z
 _atom_site_occupancy
  Mn  Mn1  1  0.500001  0.499997  0.999998  1.0
  Mn  Mn2  1  0.500005  0.000006  0.500005  1.0
  Mn  Mn3  1  0.999993  0.500000  0.500002  1.0
  Zn  Zn4  1  0.500002  0.499999  0.499997  1.0
  C  C5  1  0.999998  0.999999  0.999998  1.0
