# generated using pymatgen
data_NaBi3
_symmetry_space_group_name_H-M   'P 1'
_cell_length_a   7.01385300
_cell_length_b   7.01387329
_cell_length_c   5.76035028
_cell_angle_alpha   89.99837249
_cell_angle_beta   90.00138618
_cell_angle_gamma   120.01784265
_symmetry_Int_Tables_number   1
_chemical_formula_structural   NaBi3
_chemical_formula_sum   'Na2 Bi6'
_cell_volume   245.36690686
_cell_formula_units_Z   2
loop_
 _symmetry_equiv_pos_site_id
 _symmetry_equiv_pos_as_xyz
  1  'x, y, z'
loop_
 _atom_site_type_symbol
 _atom_site_label
 _atom_site_symmetry_multiplicity
 _atom_site_fract_x
 _atom_site_fract_y
 _atom_site_fract_z
 _atom_site_occupancy
  Na  Na1  1  0.333338  0.666668  0.749992  1.0
  Na  Na2  1  0.666665  0.333333  0.250008  1.0
  Bi  Bi3  1  0.332464  0.166207  0.750035  1.0
  Bi  Bi4  1  0.833794  0.667535  0.750036  1.0
  Bi  Bi5  1  0.166254  0.833750  0.250047  1.0
  Bi  Bi6  1  0.667532  0.833789  0.249964  1.0
  Bi  Bi7  1  0.166208  0.332464  0.249963  1.0
  Bi  Bi8  1  0.833747  0.166254  0.749952  1.0
