# generated using pymatgen
data_TmSi2Ni
_symmetry_space_group_name_H-M   'P 1'
_cell_length_a   3.92286741
_cell_length_b   3.92577444
_cell_length_c   8.48525277
_cell_angle_alpha   90.00000000
_cell_angle_beta   103.36525166
_cell_angle_gamma   90.00000000
_symmetry_Int_Tables_number   1
_chemical_formula_structural   TmSi2Ni
_chemical_formula_sum   'Tm2 Si4 Ni2'
_cell_volume   127.13619608
_cell_formula_units_Z   2
loop_
 _symmetry_equiv_pos_site_id
 _symmetry_equiv_pos_as_xyz
  1  'x, y, z'
loop_
 _atom_site_type_symbol
 _atom_site_label
 _atom_site_symmetry_multiplicity
 _atom_site_fract_x
 _atom_site_fract_y
 _atom_site_fract_z
 _atom_site_occupancy
  Tm  Tm1  1  0.605518  0.250000  0.211036  1.0
  Tm  Tm2  1  0.394482  0.750000  0.788964  1.0
  Si  Si3  1  0.960364  0.250000  0.920728  1.0
  Si  Si4  1  0.039635  0.750000  0.079272  1.0
  Si  Si5  1  0.249139  0.250000  0.498279  1.0
  Si  Si6  1  0.750861  0.750000  0.501721  1.0
  Ni  Ni7  1  0.824462  0.250000  0.648925  1.0
  Ni  Ni8  1  0.175538  0.750000  0.351075  1.0
