# generated using pymatgen
data_TmCoSi2
_symmetry_space_group_name_H-M   'P 1'
_cell_length_a   3.95369620
_cell_length_b   3.95951262
_cell_length_c   8.33661804
_cell_angle_alpha   103.73768399
_cell_angle_beta   90.00000000
_cell_angle_gamma   90.00000000
_symmetry_Int_Tables_number   1
_chemical_formula_structural   TmCoSi2
_chemical_formula_sum   'Tm2 Co2 Si4'
_cell_volume   126.77393254
_cell_formula_units_Z   2
loop_
 _symmetry_equiv_pos_site_id
 _symmetry_equiv_pos_as_xyz
  1  'x, y, z'
loop_
 _atom_site_type_symbol
 _atom_site_label
 _atom_site_symmetry_multiplicity
 _atom_site_fract_x
 _atom_site_fract_y
 _atom_site_fract_z
 _atom_site_occupancy
  Tm  Tm1  1  0.250000  0.393087  0.786175  1.0
  Tm  Tm2  1  0.750000  0.606913  0.213825  1.0
  Co  Co3  1  0.250000  0.178015  0.356031  1.0
  Co  Co4  1  0.750000  0.821985  0.643969  1.0
  Si  Si5  1  0.250000  0.041770  0.083540  1.0
  Si  Si6  1  0.750000  0.958230  0.916460  1.0
  Si  Si7  1  0.250000  0.750320  0.500641  1.0
  Si  Si8  1  0.750000  0.249680  0.499359  1.0
