# generated using pymatgen
data_LuAu3
_symmetry_space_group_name_H-M   'P 1'
_cell_length_a   5.01195337
_cell_length_b   6.03806185
_cell_length_c   5.16251450
_cell_angle_alpha   90.00000000
_cell_angle_beta   90.00000000
_cell_angle_gamma   90.00000000
_symmetry_Int_Tables_number   1
_chemical_formula_structural   LuAu3
_chemical_formula_sum   'Lu2 Au6'
_cell_volume   156.23051471
_cell_formula_units_Z   2
loop_
 _symmetry_equiv_pos_site_id
 _symmetry_equiv_pos_as_xyz
  1  'x, y, z'
loop_
 _atom_site_type_symbol
 _atom_site_label
 _atom_site_symmetry_multiplicity
 _atom_site_fract_x
 _atom_site_fract_y
 _atom_site_fract_z
 _atom_site_occupancy
  Lu  Lu1  1  0.000000  0.000000  0.345640  1.0
  Lu  Lu2  1  0.500000  0.500000  0.654360  1.0
  Au  Au3  1  0.500000  0.000000  0.655253  1.0
  Au  Au4  1  0.000000  0.500000  0.344747  1.0
  Au  Au5  1  0.000000  0.747625  0.841882  1.0
  Au  Au6  1  0.000000  0.252375  0.841882  1.0
  Au  Au7  1  0.500000  0.752375  0.158118  1.0
  Au  Au8  1  0.500000  0.247625  0.158118  1.0
