# generated using pymatgen
data_MgCd2
_symmetry_space_group_name_H-M   'P 1'
_cell_length_a   5.16920682
_cell_length_b   5.44066354
_cell_length_c   5.44066480
_cell_angle_alpha   60.00001032
_cell_angle_beta   90.00000000
_cell_angle_gamma   90.00000000
_symmetry_Int_Tables_number   1
_chemical_formula_structural   MgCd2
_chemical_formula_sum   'Mg2 Cd4'
_cell_volume   132.51298118
_cell_formula_units_Z   2
loop_
 _symmetry_equiv_pos_site_id
 _symmetry_equiv_pos_as_xyz
  1  'x, y, z'
loop_
 _atom_site_type_symbol
 _atom_site_label
 _atom_site_symmetry_multiplicity
 _atom_site_fract_x
 _atom_site_fract_y
 _atom_site_fract_z
 _atom_site_occupancy
  Mg  Mg1  1  0.500000  0.666666  0.333334  1.0
  Mg  Mg2  1  0.500000  0.999999  0.666669  1.0
  Cd  Cd3  1  0.000000  0.998633  0.000001  1.0
  Cd  Cd4  1  0.500000  0.333333  0.000000  1.0
  Cd  Cd5  1  0.000000  0.333333  0.334698  1.0
  Cd  Cd6  1  0.000000  0.668032  0.665303  1.0
