# generated using pymatgen
data_Nd(CoP)2
_symmetry_space_group_name_H-M   'P 1'
_cell_length_a   3.89122615
_cell_length_b   3.89122616
_cell_length_c   5.62780109
_cell_angle_alpha   110.22542450
_cell_angle_beta   110.22542447
_cell_angle_gamma   90.00000003
_symmetry_Int_Tables_number   1
_chemical_formula_structural   Nd(CoP)2
_chemical_formula_sum   'Nd1 Co2 P2'
_cell_volume   74.33500946
_cell_formula_units_Z   1
loop_
 _symmetry_equiv_pos_site_id
 _symmetry_equiv_pos_as_xyz
  1  'x, y, z'
loop_
 _atom_site_type_symbol
 _atom_site_label
 _atom_site_symmetry_multiplicity
 _atom_site_fract_x
 _atom_site_fract_y
 _atom_site_fract_z
 _atom_site_occupancy
  Nd  Nd1  1  0.000000  0.000000  0.000000  1.0
  Co  Co2  1  0.250000  0.750000  0.500000  1.0
  Co  Co3  1  0.750000  0.250000  0.500000  1.0
  P  P4  1  0.634862  0.634862  0.269723  1.0
  P  P5  1  0.365138  0.365138  0.730277  1.0
