# generated using pymatgen
data_Si
_symmetry_space_group_name_H-M   'P 1'
_cell_length_a   3.86208960
_cell_length_b   5.10955958
_cell_length_c   5.10955958
_cell_angle_alpha   81.78839242
_cell_angle_beta   67.79461296
_cell_angle_gamma   67.79461296
_symmetry_Int_Tables_number   1
_chemical_formula_structural   Si
_chemical_formula_sum   Si4
_cell_volume   86.42840968
_cell_formula_units_Z   4
loop_
 _symmetry_equiv_pos_site_id
 _symmetry_equiv_pos_as_xyz
  1  'x, y, z'
loop_
 _atom_site_type_symbol
 _atom_site_label
 _atom_site_symmetry_multiplicity
 _atom_site_fract_x
 _atom_site_fract_y
 _atom_site_fract_z
 _atom_site_occupancy
  Si  Si1  1  0.178625  0.642749  0.000000  1.0
  Si  Si2  1  0.821375  0.357251  0.000000  1.0
  Si  Si3  1  0.821375  0.000000  0.357251  1.0
  Si  Si4  1  0.178625  0.000000  0.642749  1.0
