# generated using pymatgen
data_K3Co2F7
_symmetry_space_group_name_H-M   'P 1'
_cell_length_a   4.07342905
_cell_length_b   4.07342893
_cell_length_c   11.35779148
_cell_angle_alpha   100.33034137
_cell_angle_beta   100.33034104
_cell_angle_gamma   89.99999491
_symmetry_Int_Tables_number   1
_chemical_formula_structural   K3Co2F7
_chemical_formula_sum   'K3 Co2 F7'
_cell_volume   182.29692559
_cell_formula_units_Z   1
loop_
 _symmetry_equiv_pos_site_id
 _symmetry_equiv_pos_as_xyz
  1  'x, y, z'
loop_
 _atom_site_type_symbol
 _atom_site_label
 _atom_site_symmetry_multiplicity
 _atom_site_fract_x
 _atom_site_fract_y
 _atom_site_fract_z
 _atom_site_occupancy
  K  K1  1  0.686405  0.686405  0.372811  1.0
  K  K2  1  0.500000  0.500000  0.000000  1.0
  K  K3  1  0.313595  0.313595  0.627189  1.0
  Co  Co4  1  0.096425  0.096425  0.192850  1.0
  Co  Co5  1  0.903575  0.903575  0.807150  1.0
  F  F6  1  0.595193  0.095193  0.190386  1.0
  F  F7  1  0.807901  0.807901  0.615802  1.0
  F  F8  1  0.904807  0.404807  0.809614  1.0
  F  F9  1  0.404807  0.904807  0.809614  1.0
  F  F10  1  0.000000  0.000000  0.000000  1.0
  F  F11  1  0.192099  0.192099  0.384198  1.0
  F  F12  1  0.095193  0.595193  0.190386  1.0
