# generated using pymatgen
data_CoCu2O3
_symmetry_space_group_name_H-M   'P 1'
_cell_length_a   3.34675940
_cell_length_b   3.94128855
_cell_length_c   9.63143083
_cell_angle_alpha   90.00000000
_cell_angle_beta   90.00000000
_cell_angle_gamma   90.00000000
_symmetry_Int_Tables_number   1
_chemical_formula_structural   CoCu2O3
_chemical_formula_sum   'Co2 Cu4 O6'
_cell_volume   127.04381699
_cell_formula_units_Z   2
loop_
 _symmetry_equiv_pos_site_id
 _symmetry_equiv_pos_as_xyz
  1  'x, y, z'
loop_
 _atom_site_type_symbol
 _atom_site_label
 _atom_site_symmetry_multiplicity
 _atom_site_fract_x
 _atom_site_fract_y
 _atom_site_fract_z
 _atom_site_occupancy
  Co  Co1  1  0.694218  0.750000  0.750000  1.0
  Co  Co2  1  0.305780  0.250001  0.250000  1.0
  Cu  Cu3  1  0.186598  0.250001  0.914336  1.0
  Cu  Cu4  1  0.186598  0.250001  0.585664  1.0
  Cu  Cu5  1  0.813403  0.750000  0.085664  1.0
  Cu  Cu6  1  0.813403  0.750000  0.414337  1.0
  O  O7  1  0.890310  0.250001  0.410244  1.0
  O  O8  1  0.890310  0.250001  0.089756  1.0
  O  O9  1  0.109691  0.750000  0.589756  1.0
  O  O10  1  0.109691  0.750000  0.910245  1.0
  O  O11  1  0.489889  0.750000  0.250000  1.0
  O  O12  1  0.510112  0.250001  0.750000  1.0
