# generated using pymatgen
data_Ti(VTe2)2
_symmetry_space_group_name_H-M   'P 1'
_cell_length_a   4.01477222
_cell_length_b   7.02980091
_cell_length_c   7.25455326
_cell_angle_alpha   119.19595766
_cell_angle_beta   106.06376971
_cell_angle_gamma   90.00000000
_symmetry_Int_Tables_number   1
_chemical_formula_structural   Ti(VTe2)2
_chemical_formula_sum   'Ti1 V2 Te4'
_cell_volume   169.51728243
_cell_formula_units_Z   1
loop_
 _symmetry_equiv_pos_site_id
 _symmetry_equiv_pos_as_xyz
  1  'x, y, z'
loop_
 _atom_site_type_symbol
 _atom_site_label
 _atom_site_symmetry_multiplicity
 _atom_site_fract_x
 _atom_site_fract_y
 _atom_site_fract_z
 _atom_site_occupancy
  Ti  Ti1  1  0.000000  0.000000  0.000000  1.0
  V  V2  1  0.243997  0.273382  0.487993  1.0
  V  V3  1  0.756003  0.726618  0.512007  1.0
  Te  Te4  1  0.115825  0.460416  0.231651  1.0
  Te  Te5  1  0.884175  0.539584  0.768349  1.0
  Te  Te6  1  0.366140  0.038011  0.732280  1.0
  Te  Te7  1  0.633860  0.961989  0.267720  1.0
