# generated using pymatgen
data_Co(BW)2
_symmetry_space_group_name_H-M   'P 1'
_cell_length_a   3.18708776
_cell_length_b   4.52250889
_cell_length_c   4.52250889
_cell_angle_alpha   60.85792902
_cell_angle_beta   69.36836811
_cell_angle_gamma   69.36836815
_symmetry_Int_Tables_number   1
_chemical_formula_structural   Co(BW)2
_chemical_formula_sum   'Co1 B2 W2'
_cell_volume   51.96346741
_cell_formula_units_Z   1
loop_
 _symmetry_equiv_pos_site_id
 _symmetry_equiv_pos_as_xyz
  1  'x, y, z'
loop_
 _atom_site_type_symbol
 _atom_site_label
 _atom_site_symmetry_multiplicity
 _atom_site_fract_x
 _atom_site_fract_y
 _atom_site_fract_z
 _atom_site_occupancy
  Co  Co1  1  0.000000  0.000000  0.000000  1.0
  B  B2  1  0.500000  0.704948  0.295052  1.0
  B  B3  1  0.500000  0.295052  0.704948  1.0
  W  W4  1  0.799618  0.700382  0.700382  1.0
  W  W5  1  0.200382  0.299618  0.299618  1.0
