# generated using pymatgen
data_Al3Fe
_symmetry_space_group_name_H-M   'P 1'
_cell_length_a   5.37493564
_cell_length_b   5.37501556
_cell_length_c   4.37384942
_cell_angle_alpha   90.02887771
_cell_angle_beta   89.97295388
_cell_angle_gamma   120.00288284
_symmetry_Int_Tables_number   1
_chemical_formula_structural   Al3Fe
_chemical_formula_sum   'Al6 Fe2'
_cell_volume   109.42958880
_cell_formula_units_Z   2
loop_
 _symmetry_equiv_pos_site_id
 _symmetry_equiv_pos_as_xyz
  1  'x, y, z'
loop_
 _atom_site_type_symbol
 _atom_site_label
 _atom_site_symmetry_multiplicity
 _atom_site_fract_x
 _atom_site_fract_y
 _atom_site_fract_z
 _atom_site_occupancy
  Al  Al1  1  0.171317  0.342625  0.249981  1.0
  Al  Al2  1  0.657371  0.828686  0.249979  1.0
  Al  Al3  1  0.171319  0.828691  0.249993  1.0
  Al  Al4  1  0.828666  0.657344  0.750019  1.0
  Al  Al5  1  0.342656  0.171329  0.750022  1.0
  Al  Al6  1  0.828665  0.171322  0.750008  1.0
  Fe  Fe7  1  0.333325  0.666661  0.749891  1.0
  Fe  Fe8  1  0.666682  0.333341  0.250111  1.0
