# generated using pymatgen
data_Ba2Pd2O5
_symmetry_space_group_name_H-M   'P 1'
_cell_length_a   8.46084654
_cell_length_b   4.09555129
_cell_length_c   4.09557200
_cell_angle_alpha   90.00001147
_cell_angle_beta   89.99999862
_cell_angle_gamma   90.00000158
_symmetry_Int_Tables_number   1
_chemical_formula_structural   Ba2Pd2O5
_chemical_formula_sum   'Ba2 Pd2 O5'
_cell_volume   141.91906863
_cell_formula_units_Z   1
loop_
 _symmetry_equiv_pos_site_id
 _symmetry_equiv_pos_as_xyz
  1  'x, y, z'
loop_
 _atom_site_type_symbol
 _atom_site_label
 _atom_site_symmetry_multiplicity
 _atom_site_fract_x
 _atom_site_fract_y
 _atom_site_fract_z
 _atom_site_occupancy
  Ba  Ba1  1  0.999999  0.000000  0.000000  1.0
  Ba  Ba2  1  0.500002  0.000000  0.000000  1.0
  Pd  Pd3  1  0.251718  0.499999  0.499999  1.0
  Pd  Pd4  1  0.748286  0.499999  0.499999  1.0
  O  O5  1  0.217691  0.499998  0.999999  1.0
  O  O6  1  0.782311  0.499998  0.999999  1.0
  O  O7  1  0.499992  0.499998  0.499998  1.0
  O  O8  1  0.217691  0.999999  0.499998  1.0
  O  O9  1  0.782310  0.999999  0.499998  1.0
