# generated using pymatgen
data_SmTmTl2
_symmetry_space_group_name_H-M   'P 1'
_cell_length_a   5.39590211
_cell_length_b   5.39589681
_cell_length_c   5.39589617
_cell_angle_alpha   60.00009233
_cell_angle_beta   60.00008483
_cell_angle_gamma   60.00004859
_symmetry_Int_Tables_number   1
_chemical_formula_structural   SmTmTl2
_chemical_formula_sum   'Sm1 Tm1 Tl2'
_cell_volume   111.09052657
_cell_formula_units_Z   1
loop_
 _symmetry_equiv_pos_site_id
 _symmetry_equiv_pos_as_xyz
  1  'x, y, z'
loop_
 _atom_site_type_symbol
 _atom_site_label
 _atom_site_symmetry_multiplicity
 _atom_site_fract_x
 _atom_site_fract_y
 _atom_site_fract_z
 _atom_site_occupancy
  Sm  Sm1  1  0.250000  0.250000  0.250000  1.0
  Tm  Tm2  1  0.750001  0.749999  0.750000  1.0
  Tl  Tl3  1  0.000000  0.000000  0.000000  1.0
  Tl  Tl4  1  0.499999  0.500000  0.499999  1.0
