# generated using pymatgen
data_TiAgF6
_symmetry_space_group_name_H-M   'P 1'
_cell_length_a   5.26291985
_cell_length_b   5.45788282
_cell_length_c   5.86865895
_cell_angle_alpha   94.08181289
_cell_angle_beta   117.19884734
_cell_angle_gamma   118.69593160
_symmetry_Int_Tables_number   1
_chemical_formula_structural   TiAgF6
_chemical_formula_sum   'Ti1 Ag1 F6'
_cell_volume   122.05154609
_cell_formula_units_Z   1
loop_
 _symmetry_equiv_pos_site_id
 _symmetry_equiv_pos_as_xyz
  1  'x, y, z'
loop_
 _atom_site_type_symbol
 _atom_site_label
 _atom_site_symmetry_multiplicity
 _atom_site_fract_x
 _atom_site_fract_y
 _atom_site_fract_z
 _atom_site_occupancy
  Ti  Ti1  1  0.000000  0.500000  0.500000  1.0
  Ag  Ag2  1  0.000000  0.000000  0.000000  1.0
  F  F3  1  0.867863  0.705170  0.290931  1.0
  F  F4  1  0.132137  0.294830  0.709069  1.0
  F  F5  1  0.470444  0.859181  0.727376  1.0
  F  F6  1  0.529556  0.140819  0.272624  1.0
  F  F7  1  0.891932  0.617288  0.741204  1.0
  F  F8  1  0.108068  0.382712  0.258796  1.0
