# generated using pymatgen
data_NbSe2
_symmetry_space_group_name_H-M   'P 1'
_cell_length_a   3.49999803
_cell_length_b   3.49768524
_cell_length_c   37.79511457
_cell_angle_alpha   90.00000000
_cell_angle_beta   90.00000000
_cell_angle_gamma   120.02186597
_symmetry_Int_Tables_number   1
_chemical_formula_structural   NbSe2
_chemical_formula_sum   'Nb4 Se8'
_cell_volume   400.60751246
_cell_formula_units_Z   4
loop_
 _symmetry_equiv_pos_site_id
 _symmetry_equiv_pos_as_xyz
  1  'x, y, z'
loop_
 _atom_site_type_symbol
 _atom_site_label
 _atom_site_symmetry_multiplicity
 _atom_site_fract_x
 _atom_site_fract_y
 _atom_site_fract_z
 _atom_site_occupancy
  Nb  Nb1  1  0.241342  0.001091  0.414491  1.0
  Nb  Nb2  1  0.240251  0.998909  0.585509  1.0
  Nb  Nb3  1  0.758658  0.998909  0.914491  1.0
  Nb  Nb4  1  0.759749  0.001091  0.085509  1.0
  Se  Se5  1  0.092928  0.668381  0.130390  1.0
  Se  Se6  1  0.424546  0.331618  0.869610  1.0
  Se  Se7  1  0.906514  0.332141  0.541081  1.0
  Se  Se8  1  0.425627  0.332141  0.958919  1.0
  Se  Se9  1  0.575454  0.668381  0.369610  1.0
  Se  Se10  1  0.093486  0.667859  0.041081  1.0
  Se  Se11  1  0.907072  0.331618  0.630390  1.0
  Se  Se12  1  0.574373  0.667859  0.458919  1.0
