# generated using pymatgen
data_TiSe
_symmetry_space_group_name_H-M   'P 1'
_cell_length_a   3.43855190
_cell_length_b   3.43855133
_cell_length_c   6.94264075
_cell_angle_alpha   90.00000000
_cell_angle_beta   90.00000000
_cell_angle_gamma   119.99999678
_symmetry_Int_Tables_number   1
_chemical_formula_structural   TiSe
_chemical_formula_sum   'Ti2 Se2'
_cell_volume   71.08965956
_cell_formula_units_Z   2
loop_
 _symmetry_equiv_pos_site_id
 _symmetry_equiv_pos_as_xyz
  1  'x, y, z'
loop_
 _atom_site_type_symbol
 _atom_site_label
 _atom_site_symmetry_multiplicity
 _atom_site_fract_x
 _atom_site_fract_y
 _atom_site_fract_z
 _atom_site_occupancy
  Ti  Ti1  1  0.333333  0.666667  0.250000  1.0
  Ti  Ti2  1  0.666667  0.333333  0.750000  1.0
  Se  Se3  1  0.000000  0.000000  0.000000  1.0
  Se  Se4  1  0.000000  0.000000  0.500000  1.0
