# generated using pymatgen
data_AcLa3
_symmetry_space_group_name_H-M   'P 1'
_cell_length_a   6.60025789
_cell_length_b   6.60025789
_cell_length_c   6.60025789
_cell_angle_alpha   131.93474501
_cell_angle_beta   131.93474501
_cell_angle_gamma   70.33210959
_symmetry_Int_Tables_number   1
_chemical_formula_structural   AcLa3
_chemical_formula_sum   'Ac1 La3'
_cell_volume   155.94083830
_cell_formula_units_Z   1
loop_
 _symmetry_equiv_pos_site_id
 _symmetry_equiv_pos_as_xyz
  1  'x, y, z'
loop_
 _atom_site_type_symbol
 _atom_site_label
 _atom_site_symmetry_multiplicity
 _atom_site_fract_x
 _atom_site_fract_y
 _atom_site_fract_z
 _atom_site_occupancy
  Ac  Ac1  1  0.000000  0.000000  0.000000  1.0
  La  La2  1  0.749999  0.250000  0.499999  1.0
  La  La3  1  0.250000  0.749999  0.499999  1.0
  La  La4  1  0.500000  0.500000  0.000000  1.0
