# generated using pymatgen
data_Mg2B24C
_symmetry_space_group_name_H-M   'P 1'
_cell_length_a   5.08913856
_cell_length_b   8.96590611
_cell_length_c   8.96590611
_cell_angle_alpha   90.00000000
_cell_angle_beta   90.00000000
_cell_angle_gamma   90.00000000
_symmetry_Int_Tables_number   1
_chemical_formula_structural   Mg2B24C
_chemical_formula_sum   'Mg4 B48 C2'
_cell_volume   409.10298540
_cell_formula_units_Z   2
loop_
 _symmetry_equiv_pos_site_id
 _symmetry_equiv_pos_as_xyz
  1  'x, y, z'
loop_
 _atom_site_type_symbol
 _atom_site_label
 _atom_site_symmetry_multiplicity
 _atom_site_fract_x
 _atom_site_fract_y
 _atom_site_fract_z
 _atom_site_occupancy
  Mg  Mg1  1  0.000000  0.000000  0.000000  1.0
  Mg  Mg2  1  0.500000  0.500000  0.500000  1.0
  Mg  Mg3  1  0.750000  0.000000  0.500000  1.0
  Mg  Mg4  1  0.250000  0.500000  0.000000  1.0
  B  B5  1  0.082916  0.598431  0.194130  1.0
  B  B6  1  0.915348  0.759039  0.922310  1.0
  B  B7  1  0.875736  0.615784  0.628344  1.0
  B  B8  1  0.915079  0.751519  0.264781  1.0
  B  B9  1  0.415079  0.251519  0.235219  1.0
  B  B10  1  0.082916  0.401569  0.805871  1.0
  B  B11  1  0.084921  0.264781  0.248481  1.0
  B  B12  1  0.587507  0.730855  0.592832  1.0
  B  B13  1  0.084652  0.922310  0.240961  1.0
  B  B14  1  0.598591  0.325280  0.079536  1.0
  B  B15  1  0.915348  0.240961  0.077690  1.0
  B  B16  1  0.912493  0.907168  0.769145  1.0
  B  B17  1  0.084921  0.735219  0.751519  1.0
  B  B18  1  0.875736  0.384216  0.371656  1.0
  B  B19  1  0.084652  0.077690  0.759039  1.0
  B  B20  1  0.584652  0.422310  0.259039  1.0
  B  B21  1  0.582916  0.901569  0.694129  1.0
  B  B22  1  0.584921  0.235219  0.748481  1.0
  B  B23  1  0.375736  0.115784  0.871656  1.0
  B  B24  1  0.917084  0.805871  0.598431  1.0
  B  B25  1  0.124264  0.628344  0.384216  1.0
  B  B26  1  0.087507  0.769145  0.092832  1.0
  B  B27  1  0.415079  0.748481  0.764781  1.0
  B  B28  1  0.415348  0.740961  0.422310  1.0
  B  B29  1  0.912493  0.092832  0.230855  1.0
  B  B30  1  0.415348  0.259039  0.577690  1.0
  B  B31  1  0.412493  0.407168  0.730855  1.0
  B  B32  1  0.915079  0.248481  0.735219  1.0
  B  B33  1  0.375736  0.884216  0.128344  1.0
  B  B34  1  0.901409  0.579536  0.825280  1.0
  B  B35  1  0.901409  0.420464  0.174720  1.0
  B  B36  1  0.417084  0.694129  0.098431  1.0
  B  B37  1  0.584652  0.577690  0.740961  1.0
  B  B38  1  0.624264  0.871656  0.884216  1.0
  B  B39  1  0.417084  0.305870  0.901569  1.0
  B  B40  1  0.412493  0.592832  0.269145  1.0
  B  B41  1  0.401409  0.079536  0.674720  1.0
  B  B42  1  0.124264  0.371656  0.615784  1.0
  B  B43  1  0.401409  0.920464  0.325280  1.0
  B  B44  1  0.587507  0.269145  0.407168  1.0
  B  B45  1  0.582916  0.098431  0.305870  1.0
  B  B46  1  0.917084  0.194130  0.401569  1.0
  B  B47  1  0.584921  0.764781  0.251519  1.0
  B  B48  1  0.087507  0.230855  0.907168  1.0
  B  B49  1  0.098591  0.174720  0.579536  1.0
  B  B50  1  0.624264  0.128344  0.115784  1.0
  B  B51  1  0.098591  0.825280  0.420464  1.0
  B  B52  1  0.598591  0.674720  0.920464  1.0
  C  C53  1  0.500000  0.000000  0.000000  1.0
  C  C54  1  0.000000  0.500000  0.500000  1.0
