# generated using pymatgen
data_NbBr3O
_symmetry_space_group_name_H-M   'P 1'
_cell_length_a   4.00131210
_cell_length_b   11.93270016
_cell_length_c   11.93270016
_cell_angle_alpha   90.00000000
_cell_angle_beta   90.00000000
_cell_angle_gamma   90.00000000
_symmetry_Int_Tables_number   1
_chemical_formula_structural   NbBr3O
_chemical_formula_sum   'Nb4 Br12 O4'
_cell_volume   569.74416148
_cell_formula_units_Z   4
loop_
 _symmetry_equiv_pos_site_id
 _symmetry_equiv_pos_as_xyz
  1  'x, y, z'
loop_
 _atom_site_type_symbol
 _atom_site_label
 _atom_site_symmetry_multiplicity
 _atom_site_fract_x
 _atom_site_fract_y
 _atom_site_fract_z
 _atom_site_occupancy
  Nb  Nb1  1  0.195785  0.126188  0.626188  1.0
  Nb  Nb2  1  0.195785  0.873812  0.373812  1.0
  Nb  Nb3  1  0.804215  0.373812  0.126188  1.0
  Nb  Nb4  1  0.804215  0.626188  0.873812  1.0
  Br  Br5  1  0.744897  0.601425  0.101425  1.0
  Br  Br6  1  0.255103  0.898575  0.601425  1.0
  Br  Br7  1  0.744897  0.398575  0.898575  1.0
  Br  Br8  1  0.744663  0.830704  0.895362  1.0
  Br  Br9  1  0.255103  0.101425  0.398575  1.0
  Br  Br10  1  0.255337  0.895362  0.169296  1.0
  Br  Br11  1  0.744663  0.169296  0.104638  1.0
  Br  Br12  1  0.744663  0.395362  0.330704  1.0
  Br  Br13  1  0.255337  0.669296  0.395362  1.0
  Br  Br14  1  0.255337  0.104638  0.830704  1.0
  Br  Br15  1  0.255337  0.330704  0.604638  1.0
  Br  Br16  1  0.744663  0.604638  0.669296  1.0
  O  O17  1  0.747035  0.880372  0.380372  1.0
  O  O18  1  0.252965  0.619628  0.880372  1.0
  O  O19  1  0.747035  0.119628  0.619628  1.0
  O  O20  1  0.252965  0.380372  0.119628  1.0
