# generated using pymatgen
data_BaCO3
_symmetry_space_group_name_H-M   'P 1'
_cell_length_a   5.46667677
_cell_length_b   9.97365599
_cell_length_c   8.88267681
_cell_angle_alpha   26.73043203
_cell_angle_beta   52.64210048
_cell_angle_gamma   57.05126046
_symmetry_Int_Tables_number   1
_chemical_formula_structural   BaCO3
_chemical_formula_sum   'Ba2 C2 O6'
_cell_volume   173.14875428
_cell_formula_units_Z   2
loop_
 _symmetry_equiv_pos_site_id
 _symmetry_equiv_pos_as_xyz
  1  'x, y, z'
loop_
 _atom_site_type_symbol
 _atom_site_label
 _atom_site_symmetry_multiplicity
 _atom_site_fract_x
 _atom_site_fract_y
 _atom_site_fract_z
 _atom_site_occupancy
  Ba  Ba1  1  0.509825  0.997426  0.503549  1.0
  Ba  Ba2  1  0.510233  0.496268  0.507362  1.0
  C  C3  1  0.001842  0.001343  0.996877  1.0
  C  C4  1  0.996845  0.499018  0.000475  1.0
  O  O5  1  0.239670  0.998177  0.000065  1.0
  O  O6  1  0.003998  0.362127  0.005103  1.0
  O  O7  1  0.239514  0.500065  0.994136  1.0
  O  O8  1  0.013862  0.141385  0.723371  1.0
  O  O9  1  0.746164  0.636239  0.998590  1.0
  O  O10  1  0.749425  0.865206  0.266639  1.0
