# generated using pymatgen
data_RbHO
_symmetry_space_group_name_H-M   'P 1'
_cell_length_a   6.14856437
_cell_length_b   4.19343386
_cell_length_c   6.14856437
_cell_angle_alpha   90.00000000
_cell_angle_beta   40.34619681
_cell_angle_gamma   90.00000000
_symmetry_Int_Tables_number   1
_chemical_formula_structural   RbHO
_chemical_formula_sum   'Rb2 H2 O2'
_cell_volume   102.63440251
_cell_formula_units_Z   2
loop_
 _symmetry_equiv_pos_site_id
 _symmetry_equiv_pos_as_xyz
  1  'x, y, z'
loop_
 _atom_site_type_symbol
 _atom_site_label
 _atom_site_symmetry_multiplicity
 _atom_site_fract_x
 _atom_site_fract_y
 _atom_site_fract_z
 _atom_site_occupancy
  Rb  Rb1  1  0.358223  0.263204  0.358223  1.0
  Rb  Rb2  1  0.641777  0.763204  0.641777  1.0
  H  H3  1  0.042989  0.387426  0.042989  1.0
  H  H4  1  0.957011  0.887426  0.957011  1.0
  O  O5  1  0.110450  0.244762  0.110450  1.0
  O  O6  1  0.889550  0.744762  0.889550  1.0
