# generated using pymatgen
data_Li3YN2
_symmetry_space_group_name_H-M   'P 1'
_cell_length_a   9.11388300
_cell_length_b   10.52380536
_cell_length_c   10.52380553
_cell_angle_alpha   89.99999909
_cell_angle_beta   125.26438997
_cell_angle_gamma   54.73560939
_symmetry_Int_Tables_number   1
_chemical_formula_structural   Li3YN2
_chemical_formula_sum   'Li24 Y8 N16'
_cell_volume   582.75823996
_cell_formula_units_Z   8
loop_
 _symmetry_equiv_pos_site_id
 _symmetry_equiv_pos_as_xyz
  1  'x, y, z'
loop_
 _atom_site_type_symbol
 _atom_site_label
 _atom_site_symmetry_multiplicity
 _atom_site_fract_x
 _atom_site_fract_y
 _atom_site_fract_z
 _atom_site_occupancy
  Li  Li1  1  0.219427  0.051393  0.008239  1.0
  Li  Li2  1  0.780573  0.770820  0.491761  1.0
  Li  Li3  1  0.780573  0.448607  0.788812  1.0
  Li  Li4  1  0.219427  0.729180  0.711188  1.0
  Li  Li5  1  0.202948  0.788812  0.262580  1.0
  Li  Li6  1  0.797052  0.711188  0.059632  1.0
  Li  Li7  1  0.202948  0.008239  0.440368  1.0
  Li  Li8  1  0.797052  0.491761  0.237420  1.0
  Li  Li9  1  0.677788  0.059632  0.729180  1.0
  Li  Li10  1  0.677788  0.262580  0.448607  1.0
  Li  Li11  1  0.322212  0.237420  0.770820  1.0
  Li  Li12  1  0.322212  0.440368  0.051393  1.0
  Li  Li13  1  0.780573  0.948607  0.991761  1.0
  Li  Li14  1  0.219427  0.229180  0.508239  1.0
  Li  Li15  1  0.219427  0.551393  0.211188  1.0
  Li  Li16  1  0.780573  0.270820  0.288812  1.0
  Li  Li17  1  0.797052  0.211188  0.737420  1.0
  Li  Li18  1  0.202948  0.288812  0.940368  1.0
  Li  Li19  1  0.797052  0.991761  0.559632  1.0
  Li  Li20  1  0.202948  0.508239  0.762580  1.0
  Li  Li21  1  0.322212  0.940368  0.270820  1.0
  Li  Li22  1  0.322212  0.737420  0.551393  1.0
  Li  Li23  1  0.677788  0.762580  0.229180  1.0
  Li  Li24  1  0.677788  0.559632  0.948607  1.0
  Y  Y25  1  0.251473  0.000000  0.751473  1.0
  Y  Y26  1  0.748527  0.751473  0.748527  1.0
  Y  Y27  1  0.748527  0.500000  0.500000  1.0
  Y  Y28  1  0.251473  0.748527  0.000000  1.0
  Y  Y29  1  0.748527  0.000000  0.248527  1.0
  Y  Y30  1  0.251473  0.248527  0.251473  1.0
  Y  Y31  1  0.251473  0.500000  0.500000  1.0
  Y  Y32  1  0.748527  0.251473  0.000000  1.0
  N  N33  1  0.000000  0.000000  0.500000  1.0
  N  N34  1  0.000000  0.500000  0.000000  1.0
  N  N35  1  0.000000  0.500000  0.500000  1.0
  N  N36  1  0.000000  0.000000  0.000000  1.0
  N  N37  1  0.500000  0.002207  0.750000  1.0
  N  N38  1  0.500000  0.497793  0.250000  1.0
  N  N39  1  0.000000  0.250000  0.752207  1.0
  N  N40  1  0.000000  0.750000  0.747793  1.0
  N  N41  1  0.495586  0.752207  0.497793  1.0
  N  N42  1  0.504414  0.747793  0.002207  1.0
  N  N43  1  0.500000  0.997793  0.250000  1.0
  N  N44  1  0.500000  0.502207  0.750000  1.0
  N  N45  1  0.000000  0.750000  0.247793  1.0
  N  N46  1  0.000000  0.250000  0.252207  1.0
  N  N47  1  0.504414  0.247793  0.502207  1.0
  N  N48  1  0.495586  0.252207  0.997793  1.0
