# generated using pymatgen
data_Na4WO4
_symmetry_space_group_name_H-M   'P 1'
_cell_length_a   4.90361878
_cell_length_b   5.70313188
_cell_length_c   5.70313188
_cell_angle_alpha   100.65057899
_cell_angle_beta   115.46158122
_cell_angle_gamma   64.53841878
_symmetry_Int_Tables_number   1
_chemical_formula_structural   Na4WO4
_chemical_formula_sum   'Na4 W1 O4'
_cell_volume   130.01623491
_cell_formula_units_Z   1
loop_
 _symmetry_equiv_pos_site_id
 _symmetry_equiv_pos_as_xyz
  1  'x, y, z'
loop_
 _atom_site_type_symbol
 _atom_site_label
 _atom_site_symmetry_multiplicity
 _atom_site_fract_x
 _atom_site_fract_y
 _atom_site_fract_z
 _atom_site_occupancy
  Na  Na1  1  0.406951  0.395414  0.209318  1.0
  Na  Na2  1  0.197633  0.209318  0.604586  1.0
  Na  Na3  1  0.802367  0.790682  0.395414  1.0
  Na  Na4  1  0.593049  0.604586  0.790682  1.0
  W  W5  1  0.000000  0.000000  0.000000  1.0
  O  O6  1  0.918865  0.333476  0.171204  1.0
  O  O7  1  0.747661  0.171204  0.666524  1.0
  O  O8  1  0.252339  0.828796  0.333476  1.0
  O  O9  1  0.081135  0.666524  0.828796  1.0
