# generated using pymatgen
data_WOF4
_symmetry_space_group_name_H-M   'P 1'
_cell_length_a   5.35215004
_cell_length_b   6.52784151
_cell_length_c   6.27633523
_cell_angle_alpha   102.25142129
_cell_angle_beta   107.93499550
_cell_angle_gamma   95.15975060
_symmetry_Int_Tables_number   1
_chemical_formula_structural   WOF4
_chemical_formula_sum   'W2 O2 F8'
_cell_volume   201.01204070
_cell_formula_units_Z   2
loop_
 _symmetry_equiv_pos_site_id
 _symmetry_equiv_pos_as_xyz
  1  'x, y, z'
loop_
 _atom_site_type_symbol
 _atom_site_label
 _atom_site_symmetry_multiplicity
 _atom_site_fract_x
 _atom_site_fract_y
 _atom_site_fract_z
 _atom_site_occupancy
  W  W1  1  0.086215  0.252129  0.217925  1.0
  W  W2  1  0.913785  0.747871  0.782075  1.0
  O  O3  1  0.004839  0.500287  0.742642  1.0
  O  O4  1  0.995161  0.499713  0.257358  1.0
  F  F5  1  0.155294  0.895537  0.680676  1.0
  F  F6  1  0.157021  0.889644  0.098708  1.0
  F  F7  1  0.361138  0.269015  0.494708  1.0
  F  F8  1  0.656567  0.706397  0.924553  1.0
  F  F9  1  0.343433  0.293603  0.075447  1.0
  F  F10  1  0.638862  0.730985  0.505292  1.0
  F  F11  1  0.842979  0.110356  0.901292  1.0
  F  F12  1  0.844706  0.104463  0.319324  1.0
