# generated using pymatgen
data_LiV2O5
_symmetry_space_group_name_H-M   'P 1'
_cell_length_a   7.70509427
_cell_length_b   6.68705550
_cell_length_c   7.64442036
_cell_angle_alpha   90.00000000
_cell_angle_beta   90.00000000
_cell_angle_gamma   90.00000000
_symmetry_Int_Tables_number   1
_chemical_formula_structural   LiV2O5
_chemical_formula_sum   'Li4 V8 O20'
_cell_volume   393.87411901
_cell_formula_units_Z   4
loop_
 _symmetry_equiv_pos_site_id
 _symmetry_equiv_pos_as_xyz
  1  'x, y, z'
loop_
 _atom_site_type_symbol
 _atom_site_label
 _atom_site_symmetry_multiplicity
 _atom_site_fract_x
 _atom_site_fract_y
 _atom_site_fract_z
 _atom_site_occupancy
  Li  Li1  1  0.000000  0.000000  0.000000  1.0
  Li  Li2  1  0.000000  0.500000  0.000000  1.0
  Li  Li3  1  0.500000  0.000000  0.500000  1.0
  Li  Li4  1  0.500000  0.500000  0.500000  1.0
  V  V5  1  0.169285  0.250000  0.729694  1.0
  V  V6  1  0.330715  0.750000  0.229694  1.0
  V  V7  1  0.669285  0.250000  0.770306  1.0
  V  V8  1  0.830715  0.750000  0.270306  1.0
  V  V9  1  0.124512  0.750000  0.628809  1.0
  V  V10  1  0.375488  0.250000  0.128809  1.0
  V  V11  1  0.624512  0.750000  0.871191  1.0
  V  V12  1  0.875488  0.250000  0.371191  1.0
  O  O13  1  0.055626  0.250000  0.502630  1.0
  O  O14  1  0.121038  0.750000  0.164834  1.0
  O  O15  1  0.122367  0.538380  0.763120  1.0
  O  O16  1  0.122367  0.961620  0.763120  1.0
  O  O17  1  0.190157  0.250000  0.996008  1.0
  O  O18  1  0.309843  0.750000  0.496008  1.0
  O  O19  1  0.377633  0.038380  0.263120  1.0
  O  O20  1  0.377633  0.461620  0.263120  1.0
  O  O21  1  0.378962  0.250000  0.664834  1.0
  O  O22  1  0.444374  0.750000  0.002630  1.0
  O  O23  1  0.555626  0.250000  0.997370  1.0
  O  O24  1  0.621038  0.750000  0.335166  1.0
  O  O25  1  0.622367  0.538380  0.736880  1.0
  O  O26  1  0.622367  0.961620  0.736880  1.0
  O  O27  1  0.690157  0.250000  0.503992  1.0
  O  O28  1  0.809843  0.750000  0.003992  1.0
  O  O29  1  0.877633  0.038380  0.236880  1.0
  O  O30  1  0.877633  0.461620  0.236880  1.0
  O  O31  1  0.878962  0.250000  0.835166  1.0
  O  O32  1  0.944374  0.750000  0.497370  1.0
