# generated using pymatgen
data_TlSbS2
_symmetry_space_group_name_H-M   'P 1'
_cell_length_a   8.97620220
_cell_length_b   11.96424059
_cell_length_c   7.37080272
_cell_angle_alpha   28.14377233
_cell_angle_beta   54.53088399
_cell_angle_gamma   42.25629772
_symmetry_Int_Tables_number   1
_chemical_formula_structural   TlSbS2
_chemical_formula_sum   'Tl2 Sb2 S4'
_cell_volume   244.45254549
_cell_formula_units_Z   2
loop_
 _symmetry_equiv_pos_site_id
 _symmetry_equiv_pos_as_xyz
  1  'x, y, z'
loop_
 _atom_site_type_symbol
 _atom_site_label
 _atom_site_symmetry_multiplicity
 _atom_site_fract_x
 _atom_site_fract_y
 _atom_site_fract_z
 _atom_site_occupancy
  Tl  Tl1  1  0.005101  0.979953  0.022590  1.0
  Tl  Tl2  1  0.746389  0.523276  0.966617  1.0
  Sb  Sb3  1  0.466443  0.997788  0.997332  1.0
  Sb  Sb4  1  0.281729  0.508288  0.992177  1.0
  S  S5  1  0.093442  0.416151  0.539753  1.0
  S  S6  1  0.654853  0.091213  0.446066  1.0
  S  S7  1  0.504602  0.573912  0.442277  1.0
  S  S8  1  0.245366  0.931799  0.546399  1.0
