# generated using pymatgen
data_B8O
_symmetry_space_group_name_H-M   'P 1'
_cell_length_a   5.14194538
_cell_length_b   9.09969782
_cell_length_c   9.09963346
_cell_angle_alpha   71.37468279
_cell_angle_beta   87.86157199
_cell_angle_gamma   87.86076862
_symmetry_Int_Tables_number   1
_chemical_formula_structural   B8O
_chemical_formula_sum   'B48 O6'
_cell_volume   403.04817962
_cell_formula_units_Z   6
loop_
 _symmetry_equiv_pos_site_id
 _symmetry_equiv_pos_as_xyz
  1  'x, y, z'
loop_
 _atom_site_type_symbol
 _atom_site_label
 _atom_site_symmetry_multiplicity
 _atom_site_fract_x
 _atom_site_fract_y
 _atom_site_fract_z
 _atom_site_occupancy
  B  B1  1  0.122594  0.100804  0.100819  1.0
  B  B2  1  0.664474  0.000355  0.000381  1.0
  B  B3  1  0.164551  0.996302  0.503093  1.0
  B  B4  1  0.330060  0.996316  0.668645  1.0
  B  B5  1  0.831100  0.000406  0.166843  1.0
  B  B6  1  0.361176  0.102115  0.338346  1.0
  B  B7  1  0.331411  0.167040  0.500814  1.0
  B  B8  1  0.831096  0.166819  0.000424  1.0
  B  B9  1  0.361187  0.338328  0.102140  1.0
  B  B10  1  0.622373  0.102064  0.599224  1.0
  B  B11  1  0.140145  0.162149  0.899330  1.0
  B  B12  1  0.642527  0.176419  0.393614  1.0
  B  B13  1  0.163047  0.331578  0.497614  1.0
  B  B14  1  0.164551  0.503068  0.996324  1.0
  B  B15  1  0.141592  0.400841  0.661761  1.0
  B  B16  1  0.642538  0.393598  0.176445  1.0
  B  B17  1  0.331416  0.500798  0.167060  1.0
  B  B18  1  0.163047  0.497596  0.331598  1.0
  B  B19  1  0.859893  0.100686  0.837871  1.0
  B  B20  1  0.335281  0.499870  0.499892  1.0
  B  B21  1  0.330052  0.668622  0.996331  1.0
  B  B22  1  0.377675  0.400790  0.897961  1.0
  B  B23  1  0.859936  0.393670  0.393689  1.0
  B  B24  1  0.858455  0.338258  0.599179  1.0
  B  B25  1  0.622370  0.599210  0.102077  1.0
  B  B26  1  0.140101  0.606328  0.606352  1.0
  B  B27  1  0.141583  0.661739  0.400864  1.0
  B  B28  1  0.669994  0.331378  0.003710  1.0
  B  B29  1  0.664756  0.500128  0.500154  1.0
  B  B30  1  0.140156  0.899311  0.162179  1.0
  B  B31  1  0.836996  0.502402  0.668445  1.0
  B  B32  1  0.668634  0.499202  0.832982  1.0
  B  B33  1  0.357507  0.606402  0.823595  1.0
  B  B34  1  0.858445  0.599157  0.338281  1.0
  B  B35  1  0.835495  0.496935  0.003718  1.0
  B  B36  1  0.836988  0.668420  0.502430  1.0
  B  B37  1  0.377672  0.897936  0.400821  1.0
  B  B38  1  0.859902  0.837850  0.100715  1.0
  B  B39  1  0.357519  0.823582  0.606431  1.0
  B  B40  1  0.638856  0.661675  0.897900  1.0
  B  B41  1  0.668634  0.832960  0.499231  1.0
  B  B42  1  0.168953  0.833182  0.999622  1.0
  B  B43  1  0.638870  0.897887  0.661700  1.0
  B  B44  1  0.669989  0.003683  0.331402  1.0
  B  B45  1  0.168952  0.999595  0.833206  1.0
  B  B46  1  0.835497  0.003698  0.496956  1.0
  B  B47  1  0.335574  0.999645  0.999668  1.0
  B  B48  1  0.877454  0.899200  0.899230  1.0
  O  O49  1  0.239161  0.190427  0.190452  1.0
  O  O50  1  0.258978  0.310604  0.810102  1.0
  O  O51  1  0.741074  0.189916  0.689415  1.0
  O  O52  1  0.258967  0.810084  0.310629  1.0
  O  O53  1  0.741073  0.689396  0.189937  1.0
  O  O54  1  0.760874  0.809574  0.809596  1.0
