# generated using pymatgen
data_GdO
_symmetry_space_group_name_H-M   'P 1'
_cell_length_a   3.81290877
_cell_length_b   3.81290876
_cell_length_c   3.81290877
_cell_angle_alpha   60.00000003
_cell_angle_beta   60.00000009
_cell_angle_gamma   60.00000005
_symmetry_Int_Tables_number   1
_chemical_formula_structural   GdO
_chemical_formula_sum   'Gd1 O1'
_cell_volume   39.19712773
_cell_formula_units_Z   1
loop_
 _symmetry_equiv_pos_site_id
 _symmetry_equiv_pos_as_xyz
  1  'x, y, z'
loop_
 _atom_site_type_symbol
 _atom_site_label
 _atom_site_symmetry_multiplicity
 _atom_site_fract_x
 _atom_site_fract_y
 _atom_site_fract_z
 _atom_site_occupancy
  Gd  Gd1  1  0.000000  0.000000  0.000000  1.0
  O  O2  1  0.250000  0.250000  0.250000  1.0
