# generated using pymatgen
data_Na2CoO3
_symmetry_space_group_name_H-M   'P 1'
_cell_length_a   5.97608263
_cell_length_b   6.40776580
_cell_length_c   4.98578162
_cell_angle_alpha   90.00000000
_cell_angle_beta   90.00000000
_cell_angle_gamma   62.20459960
_symmetry_Int_Tables_number   1
_chemical_formula_structural   Na2CoO3
_chemical_formula_sum   'Na4 Co2 O6'
_cell_volume   168.89331148
_cell_formula_units_Z   2
loop_
 _symmetry_equiv_pos_site_id
 _symmetry_equiv_pos_as_xyz
  1  'x, y, z'
loop_
 _atom_site_type_symbol
 _atom_site_label
 _atom_site_symmetry_multiplicity
 _atom_site_fract_x
 _atom_site_fract_y
 _atom_site_fract_z
 _atom_site_occupancy
  Na  Na1  1  0.845334  0.673393  0.511249  1.0
  Na  Na2  1  0.481274  0.673393  0.011249  1.0
  Na  Na3  1  0.518726  0.326607  0.511249  1.0
  Na  Na4  1  0.154666  0.326607  0.011249  1.0
  Co  Co5  1  0.818796  0.000000  0.044356  1.0
  Co  Co6  1  0.181204  0.000000  0.544356  1.0
  O  O7  1  0.849809  0.720023  0.996393  1.0
  O  O8  1  0.430167  0.720023  0.496393  1.0
  O  O9  1  0.569833  0.279977  0.996393  1.0
  O  O10  1  0.150191  0.279977  0.496393  1.0
  O  O11  1  0.895865  0.000000  0.398359  1.0
  O  O12  1  0.104135  0.000000  0.898359  1.0
