# generated using pymatgen
data_KHCO3
_symmetry_space_group_name_H-M   'P 1'
_cell_length_a   15.31005969
_cell_length_b   5.71983206
_cell_length_c   3.77137164
_cell_angle_alpha   90.00000000
_cell_angle_beta   105.28095219
_cell_angle_gamma   90.00000000
_symmetry_Int_Tables_number   1
_chemical_formula_structural   KHCO3
_chemical_formula_sum   'K4 H4 C4 O12'
_cell_volume   318.58626626
_cell_formula_units_Z   4
loop_
 _symmetry_equiv_pos_site_id
 _symmetry_equiv_pos_as_xyz
  1  'x, y, z'
loop_
 _atom_site_type_symbol
 _atom_site_label
 _atom_site_symmetry_multiplicity
 _atom_site_fract_x
 _atom_site_fract_y
 _atom_site_fract_z
 _atom_site_occupancy
  K  K1  1  0.664845  0.477091  0.293711  1.0
  K  K2  1  0.835155  0.977091  0.706289  1.0
  K  K3  1  0.335155  0.522909  0.706289  1.0
  K  K4  1  0.164845  0.022909  0.293711  1.0
  H  H5  1  0.513220  0.810660  0.541383  1.0
  H  H6  1  0.986780  0.310660  0.458617  1.0
  H  H7  1  0.486780  0.189340  0.458617  1.0
  H  H8  1  0.013220  0.689340  0.541383  1.0
  C  C9  1  0.618638  0.985462  0.852334  1.0
  C  C10  1  0.881362  0.485462  0.147666  1.0
  C  C11  1  0.381362  0.014538  0.147666  1.0
  C  C12  1  0.118638  0.514538  0.852334  1.0
  O  O13  1  0.693091  0.966882  0.093965  1.0
  O  O14  1  0.806909  0.466882  0.906035  1.0
  O  O15  1  0.306909  0.033118  0.906035  1.0
  O  O16  1  0.193091  0.533118  0.093965  1.0
  O  O17  1  0.581064  0.179367  0.723023  1.0
  O  O18  1  0.918936  0.679367  0.276977  1.0
  O  O19  1  0.418936  0.820633  0.276977  1.0
  O  O20  1  0.081064  0.320633  0.723023  1.0
  O  O21  1  0.576145  0.781271  0.722143  1.0
  O  O22  1  0.923855  0.281271  0.277857  1.0
  O  O23  1  0.423855  0.218729  0.277857  1.0
  O  O24  1  0.076145  0.718729  0.722143  1.0
