# generated using pymatgen
data_V3CoO8
_symmetry_space_group_name_H-M   'P 1'
_cell_length_a   5.59235213
_cell_length_b   7.34726828
_cell_length_c   5.58529047
_cell_angle_alpha   90.50043157
_cell_angle_beta   89.93813741
_cell_angle_gamma   90.53064142
_symmetry_Int_Tables_number   1
_chemical_formula_structural   V3CoO8
_chemical_formula_sum   'V3 Co1 O8'
_cell_volume   229.47256156
_cell_formula_units_Z   1
loop_
 _symmetry_equiv_pos_site_id
 _symmetry_equiv_pos_as_xyz
  1  'x, y, z'
loop_
 _atom_site_type_symbol
 _atom_site_label
 _atom_site_symmetry_multiplicity
 _atom_site_fract_x
 _atom_site_fract_y
 _atom_site_fract_z
 _atom_site_occupancy
  V  V1  1  0.063883  0.121316  0.009833  1.0
  V  V2  1  0.432471  0.627305  0.498176  1.0
  V  V3  1  0.567201  0.374872  0.997220  1.0
  Co  Co4  1  0.932220  0.877264  0.508010  1.0
  O  O5  1  0.035096  0.074058  0.304625  1.0
  O  O6  1  0.139876  0.672616  0.449780  1.0
  O  O7  1  0.368888  0.184884  0.936476  1.0
  O  O8  1  0.479170  0.557826  0.803505  1.0
  O  O9  1  0.527627  0.443460  0.306804  1.0
  O  O10  1  0.600279  0.815997  0.446883  1.0
  O  O11  1  0.874910  0.311428  0.943977  1.0
  O  O12  1  0.978377  0.938975  0.843112  1.0
