# generated using pymatgen
data_LiVF4
_symmetry_space_group_name_H-M   'P 1'
_cell_length_a   6.13738807
_cell_length_b   6.13738747
_cell_length_c   5.64801319
_cell_angle_alpha   62.62022573
_cell_angle_beta   62.62022429
_cell_angle_gamma   60.51031590
_symmetry_Int_Tables_number   1
_chemical_formula_structural   LiVF4
_chemical_formula_sum   'Li2 V2 F8'
_cell_volume   156.75647254
_cell_formula_units_Z   2
loop_
 _symmetry_equiv_pos_site_id
 _symmetry_equiv_pos_as_xyz
  1  'x, y, z'
loop_
 _atom_site_type_symbol
 _atom_site_label
 _atom_site_symmetry_multiplicity
 _atom_site_fract_x
 _atom_site_fract_y
 _atom_site_fract_z
 _atom_site_occupancy
  Li  Li1  1  0.000000  0.500000  0.000000  1.0
  Li  Li2  1  0.500000  0.000000  0.500000  1.0
  V  V3  1  0.000000  0.000000  0.500000  1.0
  V  V4  1  0.500000  0.500000  0.500000  1.0
  F  F5  1  0.209541  0.217110  0.285571  1.0
  F  F6  1  0.282890  0.290459  0.714429  1.0
  F  F7  1  0.252182  0.752182  0.280352  1.0
  F  F8  1  0.254377  0.754377  0.733128  1.0
  F  F9  1  0.745623  0.245623  0.266872  1.0
  F  F10  1  0.747818  0.247818  0.719648  1.0
  F  F11  1  0.717110  0.709541  0.285571  1.0
  F  F12  1  0.790459  0.782890  0.714429  1.0
