# generated using pymatgen
data_Li3VF8
_symmetry_space_group_name_H-M   'P 1'
_cell_length_a   5.59875727
_cell_length_b   6.73788103
_cell_length_c   6.73788059
_cell_angle_alpha   87.79523668
_cell_angle_beta   55.67878664
_cell_angle_gamma   55.67879438
_symmetry_Int_Tables_number   1
_chemical_formula_structural   Li3VF8
_chemical_formula_sum   'Li3 V1 F8'
_cell_volume   158.15677985
_cell_formula_units_Z   1
loop_
 _symmetry_equiv_pos_site_id
 _symmetry_equiv_pos_as_xyz
  1  'x, y, z'
loop_
 _atom_site_type_symbol
 _atom_site_label
 _atom_site_symmetry_multiplicity
 _atom_site_fract_x
 _atom_site_fract_y
 _atom_site_fract_z
 _atom_site_occupancy
  Li  Li1  1  0.000000  0.000000  0.500000  1.0
  Li  Li2  1  0.000000  0.500000  0.000000  1.0
  Li  Li3  1  0.500000  0.500000  0.500000  1.0
  V  V4  1  0.000000  0.000000  0.000000  1.0
  F  F5  1  0.057617  0.163308  0.163308  1.0
  F  F6  1  0.000000  0.193898  0.806102  1.0
  F  F7  1  0.000000  0.806102  0.193898  1.0
  F  F8  1  0.942383  0.836692  0.836692  1.0
  F  F9  1  0.490681  0.254142  0.254142  1.0
  F  F10  1  0.500000  0.302527  0.697473  1.0
  F  F11  1  0.500000  0.697473  0.302527  1.0
  F  F12  1  0.509319  0.745858  0.745858  1.0
