# generated using pymatgen
data_Al2O3
_symmetry_space_group_name_H-M   'P 1'
_cell_length_a   2.83376877
_cell_length_b   4.93596895
_cell_length_c   9.04312328
_cell_angle_alpha   81.68818280
_cell_angle_beta   94.80552241
_cell_angle_gamma   91.48371023
_symmetry_Int_Tables_number   1
_chemical_formula_structural   Al2O3
_chemical_formula_sum   'Al4 O6'
_cell_volume   124.70893333
_cell_formula_units_Z   2
loop_
 _symmetry_equiv_pos_site_id
 _symmetry_equiv_pos_as_xyz
  1  'x, y, z'
loop_
 _atom_site_type_symbol
 _atom_site_label
 _atom_site_symmetry_multiplicity
 _atom_site_fract_x
 _atom_site_fract_y
 _atom_site_fract_z
 _atom_site_occupancy
  Al  Al1  1  0.800912  0.854668  0.954660  1.0
  Al  Al2  1  0.119838  0.074409  0.405642  1.0
  Al  Al3  1  0.585340  0.616713  0.222992  1.0
  Al  Al4  1  0.266496  0.396935  0.772045  1.0
  O  O5  1  0.665729  0.120611  0.543385  1.0
  O  O6  1  0.592522  0.881698  0.343690  1.0
  O  O7  1  0.292673  0.072583  0.892476  1.0
  O  O8  1  0.793838  0.589479  0.834115  1.0
  O  O9  1  0.093592  0.398637  0.285036  1.0
  O  O10  1  0.720459  0.350965  0.634260  1.0
