# generated using pymatgen
data_Na5BiO5
_symmetry_space_group_name_H-M   'P 1'
_cell_length_a   4.60247909
_cell_length_b   5.97393348
_cell_length_c   6.62390641
_cell_angle_alpha   72.84868370
_cell_angle_beta   89.99999996
_cell_angle_gamma   67.34301259
_symmetry_Int_Tables_number   1
_chemical_formula_structural   Na5BiO5
_chemical_formula_sum   'Na5 Bi1 O5'
_cell_volume   159.25638306
_cell_formula_units_Z   1
loop_
 _symmetry_equiv_pos_site_id
 _symmetry_equiv_pos_as_xyz
  1  'x, y, z'
loop_
 _atom_site_type_symbol
 _atom_site_label
 _atom_site_symmetry_multiplicity
 _atom_site_fract_x
 _atom_site_fract_y
 _atom_site_fract_z
 _atom_site_occupancy
  Na  Na1  1  0.673578  0.652843  0.876333  1.0
  Na  Na2  1  0.689630  0.620741  0.341032  1.0
  Na  Na3  1  0.297455  0.405090  0.689859  1.0
  Na  Na4  1  0.314980  0.370042  0.156408  1.0
  Na  Na5  1  0.993817  0.012365  0.515984  1.0
  Bi  Bi6  1  0.993898  0.012204  0.015335  1.0
  O  O7  1  0.132411  0.735180  0.852315  1.0
  O  O8  1  0.494197  0.011606  0.015172  1.0
  O  O9  1  0.144026  0.711948  0.319632  1.0
  O  O10  1  0.843680  0.312639  0.710878  1.0
  O  O11  1  0.855829  0.288342  0.179452  1.0
