# generated using pymatgen
data_Ca2SnS4
_symmetry_space_group_name_H-M   'P 1'
_cell_length_a   3.87140930
_cell_length_b   7.02079317
_cell_length_c   7.02079344
_cell_angle_alpha   108.55490777
_cell_angle_beta   90.00000000
_cell_angle_gamma   90.00000000
_symmetry_Int_Tables_number   1
_chemical_formula_structural   Ca2SnS4
_chemical_formula_sum   'Ca2 Sn1 S4'
_cell_volume   180.90833201
_cell_formula_units_Z   1
loop_
 _symmetry_equiv_pos_site_id
 _symmetry_equiv_pos_as_xyz
  1  'x, y, z'
loop_
 _atom_site_type_symbol
 _atom_site_label
 _atom_site_symmetry_multiplicity
 _atom_site_fract_x
 _atom_site_fract_y
 _atom_site_fract_z
 _atom_site_occupancy
  Ca  Ca1  1  0.500000  0.000000  0.500000  1.0
  Ca  Ca2  1  0.500000  0.500000  0.000000  1.0
  Sn  Sn3  1  0.000000  0.000000  0.000000  1.0
  S  S4  1  0.000000  0.229672  0.770328  1.0
  S  S5  1  0.000000  0.770328  0.229672  1.0
  S  S6  1  0.500000  0.782242  0.782242  1.0
  S  S7  1  0.500000  0.217758  0.217758  1.0
