# generated using pymatgen
data_Sn3Ru2
_symmetry_space_group_name_H-M   'P 1'
_cell_length_a   6.25339861
_cell_length_b   6.25350745
_cell_length_c   10.03062149
_cell_angle_alpha   89.99944927
_cell_angle_beta   89.99859039
_cell_angle_gamma   89.99760965
_symmetry_Int_Tables_number   1
_chemical_formula_structural   Sn3Ru2
_chemical_formula_sum   'Sn12 Ru8'
_cell_volume   392.25422151
_cell_formula_units_Z   4
loop_
 _symmetry_equiv_pos_site_id
 _symmetry_equiv_pos_as_xyz
  1  'x, y, z'
loop_
 _atom_site_type_symbol
 _atom_site_label
 _atom_site_symmetry_multiplicity
 _atom_site_fract_x
 _atom_site_fract_y
 _atom_site_fract_z
 _atom_site_occupancy
  Sn  Sn1  1  0.220386  0.343605  0.084071  1.0
  Sn  Sn2  1  0.343592  0.220406  0.416000  1.0
  Sn  Sn3  1  0.343604  0.779583  0.915926  1.0
  Sn  Sn4  1  0.656395  0.220436  0.915975  1.0
  Sn  Sn5  1  0.220420  0.656373  0.583994  1.0
  Sn  Sn6  1  0.821334  0.821343  0.750063  1.0
  Sn  Sn7  1  0.656386  0.779625  0.415949  1.0
  Sn  Sn8  1  0.178738  0.821356  0.250027  1.0
  Sn  Sn9  1  0.821280  0.178681  0.249955  1.0
  Sn  Sn10  1  0.779634  0.343609  0.584027  1.0
  Sn  Sn11  1  0.779628  0.656416  0.084089  1.0
  Sn  Sn12  1  0.178679  0.178714  0.749970  1.0
  Ru  Ru13  1  0.499992  0.999983  0.125517  1.0
  Ru  Ru14  1  0.999979  0.499987  0.874476  1.0
  Ru  Ru15  1  0.999989  0.999978  0.500009  1.0
  Ru  Ru16  1  0.999984  0.499984  0.374376  1.0
  Ru  Ru17  1  0.499987  0.999948  0.625563  1.0
  Ru  Ru18  1  0.999991  0.000002  0.000019  1.0
  Ru  Ru19  1  0.499998  0.499983  0.250037  1.0
  Ru  Ru20  1  0.500004  0.499991  0.749957  1.0
