# generated using pymatgen
data_NbZn16
_symmetry_space_group_name_H-M   'P 1'
_cell_length_a   6.91100045
_cell_length_b   6.91100004
_cell_length_c   11.71980107
_cell_angle_alpha   90.00000000
_cell_angle_beta   90.00000000
_cell_angle_gamma   112.08479927
_symmetry_Int_Tables_number   1
_chemical_formula_structural   NbZn16
_chemical_formula_sum   'Nb2 Zn32'
_cell_volume   518.68975368
_cell_formula_units_Z   2
loop_
 _symmetry_equiv_pos_site_id
 _symmetry_equiv_pos_as_xyz
  1  'x, y, z'
loop_
 _atom_site_type_symbol
 _atom_site_label
 _atom_site_symmetry_multiplicity
 _atom_site_fract_x
 _atom_site_fract_y
 _atom_site_fract_z
 _atom_site_occupancy
  Nb  Nb1  1  0.048210  0.951790  0.750000  1.0
  Nb  Nb2  1  0.951790  0.048210  0.250000  1.0
  Zn  Zn3  1  0.755713  0.651211  0.366195  1.0
  Zn  Zn4  1  0.355026  0.981328  0.930712  1.0
  Zn  Zn5  1  0.620115  0.379885  0.968087  1.0
  Zn  Zn6  1  0.018672  0.644974  0.569288  1.0
  Zn  Zn7  1  0.192823  0.480754  0.250000  1.0
  Zn  Zn8  1  0.651211  0.755713  0.866195  1.0
  Zn  Zn9  1  0.379885  0.620115  0.468087  1.0
  Zn  Zn10  1  0.348789  0.244287  0.133805  1.0
  Zn  Zn11  1  0.175881  0.824119  0.359692  1.0
  Zn  Zn12  1  0.981328  0.355026  0.069288  1.0
  Zn  Zn13  1  0.244287  0.348789  0.866195  1.0
  Zn  Zn14  1  0.644974  0.018672  0.430712  1.0
  Zn  Zn15  1  0.807177  0.519246  0.750000  1.0
  Zn  Zn16  1  0.244287  0.348789  0.633805  1.0
  Zn  Zn17  1  0.379885  0.620115  0.031913  1.0
  Zn  Zn18  1  0.348789  0.244287  0.366195  1.0
  Zn  Zn19  1  0.755713  0.651211  0.133805  1.0
  Zn  Zn20  1  0.519246  0.807177  0.250000  1.0
  Zn  Zn21  1  0.000000  0.000000  0.000000  1.0
  Zn  Zn22  1  0.620115  0.379885  0.531913  1.0
  Zn  Zn23  1  0.290037  0.709963  0.750000  1.0
  Zn  Zn24  1  0.480754  0.192823  0.750000  1.0
  Zn  Zn25  1  0.644974  0.018672  0.069288  1.0
  Zn  Zn26  1  0.651211  0.755713  0.633805  1.0
  Zn  Zn27  1  0.175881  0.824119  0.140308  1.0
  Zn  Zn28  1  0.018672  0.644974  0.930712  1.0
  Zn  Zn29  1  0.000000  0.000000  0.500000  1.0
  Zn  Zn30  1  0.981328  0.355026  0.430712  1.0
  Zn  Zn31  1  0.355026  0.981328  0.569288  1.0
  Zn  Zn32  1  0.709963  0.290037  0.250000  1.0
  Zn  Zn33  1  0.824119  0.175881  0.859692  1.0
  Zn  Zn34  1  0.824119  0.175881  0.640308  1.0
