# generated using pymatgen
data_WO2F
_symmetry_space_group_name_H-M   'P 1'
_cell_length_a   5.55958772
_cell_length_b   5.75175732
_cell_length_c   5.55958681
_cell_angle_alpha   120.90662890
_cell_angle_beta   60.85013600
_cell_angle_gamma   120.90661954
_symmetry_Int_Tables_number   1
_chemical_formula_structural   WO2F
_chemical_formula_sum   'W2 O4 F2'
_cell_volume   124.71346756
_cell_formula_units_Z   2
loop_
 _symmetry_equiv_pos_site_id
 _symmetry_equiv_pos_as_xyz
  1  'x, y, z'
loop_
 _atom_site_type_symbol
 _atom_site_label
 _atom_site_symmetry_multiplicity
 _atom_site_fract_x
 _atom_site_fract_y
 _atom_site_fract_z
 _atom_site_occupancy
  W  W1  1  0.696898  0.157517  0.749167  1.0
  W  W2  1  0.249167  0.657517  0.196898  1.0
  O  O3  1  0.995997  0.402978  0.936911  1.0
  O  O4  1  0.461853  0.398500  0.989911  1.0
  O  O5  1  0.436911  0.902978  0.495997  1.0
  O  O6  1  0.489911  0.898500  0.961853  1.0
  F  F7  1  0.942177  0.404652  0.469516  1.0
  F  F8  1  0.969516  0.904652  0.442177  1.0
