# generated using pymatgen
data_PbWO4
_symmetry_space_group_name_H-M   'P 1'
_cell_length_a   5.13355047
_cell_length_b   5.97126525
_cell_length_c   6.95271304
_cell_angle_alpha   112.90478148
_cell_angle_beta   108.82198733
_cell_angle_gamma   96.11064983
_symmetry_Int_Tables_number   1
_chemical_formula_structural   PbWO4
_chemical_formula_sum   'Pb2 W2 O8'
_cell_volume   179.12420818
_cell_formula_units_Z   2
loop_
 _symmetry_equiv_pos_site_id
 _symmetry_equiv_pos_as_xyz
  1  'x, y, z'
loop_
 _atom_site_type_symbol
 _atom_site_label
 _atom_site_symmetry_multiplicity
 _atom_site_fract_x
 _atom_site_fract_y
 _atom_site_fract_z
 _atom_site_occupancy
  Pb  Pb1  1  0.616306  0.365884  0.228798  1.0
  Pb  Pb2  1  0.386644  0.636591  0.768740  1.0
  W  W3  1  0.156941  0.906055  0.309958  1.0
  W  W4  1  0.845824  0.095255  0.687182  1.0
  O  O5  1  0.831995  0.654341  0.103244  1.0
  O  O6  1  0.564999  0.243646  0.568132  1.0
  O  O7  1  0.434639  0.755258  0.428235  1.0
  O  O8  1  0.275270  0.952031  0.103447  1.0
  O  O9  1  0.995348  0.173884  0.429150  1.0
  O  O10  1  0.170318  0.347193  0.893958  1.0
  O  O11  1  0.727411  0.049476  0.893797  1.0
  O  O12  1  0.005151  0.825898  0.568683  1.0
