# generated using pymatgen
data_Hf5N5O2
_symmetry_space_group_name_H-M   'P 1'
_cell_length_a   3.06914242
_cell_length_b   5.40231322
_cell_length_c   9.16992795
_cell_angle_alpha   74.84992208
_cell_angle_beta   90.00000000
_cell_angle_gamma   73.49744086
_symmetry_Int_Tables_number   1
_chemical_formula_structural   Hf5N5O2
_chemical_formula_sum   'Hf5 N5 O2'
_cell_volume   140.25861900
_cell_formula_units_Z   1
loop_
 _symmetry_equiv_pos_site_id
 _symmetry_equiv_pos_as_xyz
  1  'x, y, z'
loop_
 _atom_site_type_symbol
 _atom_site_label
 _atom_site_symmetry_multiplicity
 _atom_site_fract_x
 _atom_site_fract_y
 _atom_site_fract_z
 _atom_site_occupancy
  Hf  Hf1  1  0.109328  0.781344  0.920030  1.0
  Hf  Hf2  1  0.698488  0.603025  0.299580  1.0
  Hf  Hf3  1  0.306353  0.387295  0.702106  1.0
  Hf  Hf4  1  0.887788  0.224423  0.081431  1.0
  Hf  Hf5  1  0.989441  0.021118  0.506257  1.0
  N  N6  1  0.508353  0.983295  0.014635  1.0
  N  N7  1  0.740415  0.519170  0.856090  1.0
  N  N8  1  0.266040  0.467920  0.152017  1.0
  N  N9  1  0.338159  0.323683  0.446979  1.0
  N  N10  1  0.954939  0.090123  0.716365  1.0
  O  O11  1  0.045646  0.908706  0.294620  1.0
  O  O12  1  0.653781  0.692439  0.551821  1.0
