# generated using pymatgen
data_Li6CuS4
_symmetry_space_group_name_H-M   'P 1'
_cell_length_a   7.68758091
_cell_length_b   7.68758091
_cell_length_c   3.60217669
_cell_angle_alpha   76.45049768
_cell_angle_beta   103.54950232
_cell_angle_gamma   124.24748549
_symmetry_Int_Tables_number   1
_chemical_formula_structural   Li6CuS4
_chemical_formula_sum   'Li6 Cu1 S4'
_cell_volume   169.68024230
_cell_formula_units_Z   1
loop_
 _symmetry_equiv_pos_site_id
 _symmetry_equiv_pos_as_xyz
  1  'x, y, z'
loop_
 _atom_site_type_symbol
 _atom_site_label
 _atom_site_symmetry_multiplicity
 _atom_site_fract_x
 _atom_site_fract_y
 _atom_site_fract_z
 _atom_site_occupancy
  Li  Li1  1  0.409592  0.170577  0.119508  1.0
  Li  Li2  1  0.821077  0.108243  0.356417  1.0
  Li  Li3  1  0.395442  0.770323  0.312560  1.0
  Li  Li4  1  0.770323  0.395442  0.687440  1.0
  Li  Li5  1  0.108243  0.821077  0.643583  1.0
  Li  Li6  1  0.170577  0.409592  0.880492  1.0
  Cu  Cu7  1  0.718496  0.718496  0.000000  1.0
  S  S8  1  0.025330  0.025330  0.000000  1.0
  S  S9  1  0.511734  0.018417  0.746658  1.0
  S  S10  1  0.018417  0.511734  0.253342  1.0
  S  S11  1  0.531948  0.531948  0.500000  1.0
