# generated using pymatgen
data_SrSc2O4
_symmetry_space_group_name_H-M   'P 1'
_cell_length_a   9.76036468
_cell_length_b   11.34946784
_cell_length_c   3.20939056
_cell_angle_alpha   90.00000000
_cell_angle_beta   90.00000000
_cell_angle_gamma   90.00000000
_symmetry_Int_Tables_number   1
_chemical_formula_structural   SrSc2O4
_chemical_formula_sum   'Sr4 Sc8 O16'
_cell_volume   355.52006290
_cell_formula_units_Z   4
loop_
 _symmetry_equiv_pos_site_id
 _symmetry_equiv_pos_as_xyz
  1  'x, y, z'
loop_
 _atom_site_type_symbol
 _atom_site_label
 _atom_site_symmetry_multiplicity
 _atom_site_fract_x
 _atom_site_fract_y
 _atom_site_fract_z
 _atom_site_occupancy
  Sr  Sr1  1  0.245256  0.347874  0.750000  1.0
  Sr  Sr2  1  0.254744  0.847874  0.250000  1.0
  Sr  Sr3  1  0.745256  0.152126  0.750000  1.0
  Sr  Sr4  1  0.754744  0.652126  0.250000  1.0
  Sc  Sc5  1  0.070904  0.109972  0.750000  1.0
  Sc  Sc6  1  0.077890  0.606806  0.750000  1.0
  Sc  Sc7  1  0.422110  0.106806  0.250000  1.0
  Sc  Sc8  1  0.429096  0.609972  0.250000  1.0
  Sc  Sc9  1  0.570904  0.390028  0.750000  1.0
  Sc  Sc10  1  0.577890  0.893194  0.750000  1.0
  Sc  Sc11  1  0.922110  0.393194  0.250000  1.0
  Sc  Sc12  1  0.929096  0.890028  0.250000  1.0
  O  O13  1  0.020884  0.716719  0.250000  1.0
  O  O14  1  0.073910  0.925984  0.750000  1.0
  O  O15  1  0.116851  0.479721  0.250000  1.0
  O  O16  1  0.208231  0.159807  0.250000  1.0
  O  O17  1  0.291769  0.659807  0.750000  1.0
  O  O18  1  0.383149  0.979721  0.750000  1.0
  O  O19  1  0.426090  0.425984  0.250000  1.0
  O  O20  1  0.479116  0.216719  0.750000  1.0
  O  O21  1  0.520884  0.783281  0.250000  1.0
  O  O22  1  0.573910  0.574016  0.750000  1.0
  O  O23  1  0.616851  0.020279  0.250000  1.0
  O  O24  1  0.708231  0.340193  0.250000  1.0
  O  O25  1  0.791769  0.840193  0.750000  1.0
  O  O26  1  0.883149  0.520279  0.750000  1.0
  O  O27  1  0.926090  0.074016  0.250000  1.0
  O  O28  1  0.979116  0.283281  0.750000  1.0
