# generated using pymatgen
data_Li2CuS2
_symmetry_space_group_name_H-M   'P 1'
_cell_length_a   3.43154382
_cell_length_b   4.43399945
_cell_length_c   6.16711343
_cell_angle_alpha   77.41308326
_cell_angle_beta   90.08978917
_cell_angle_gamma   113.09753868
_symmetry_Int_Tables_number   1
_chemical_formula_structural   Li2CuS2
_chemical_formula_sum   'Li2 Cu1 S2'
_cell_volume   83.87017788
_cell_formula_units_Z   1
loop_
 _symmetry_equiv_pos_site_id
 _symmetry_equiv_pos_as_xyz
  1  'x, y, z'
loop_
 _atom_site_type_symbol
 _atom_site_label
 _atom_site_symmetry_multiplicity
 _atom_site_fract_x
 _atom_site_fract_y
 _atom_site_fract_z
 _atom_site_occupancy
  Li  Li1  1  0.342325  0.669223  0.659432  1.0
  Li  Li2  1  0.666017  0.331894  0.329123  1.0
  Cu  Cu3  1  0.002666  0.000756  0.994054  1.0
  S  S4  1  0.393180  0.782029  0.239709  1.0
  S  S5  1  0.615877  0.219418  0.750363  1.0
