# generated using pymatgen
data_VCl2O
_symmetry_space_group_name_H-M   'P 1'
_cell_length_a   7.00121293
_cell_length_b   3.75120069
_cell_length_c   6.58108704
_cell_angle_alpha   106.58763885
_cell_angle_beta   105.38447656
_cell_angle_gamma   89.99812341
_symmetry_Int_Tables_number   1
_chemical_formula_structural   VCl2O
_chemical_formula_sum   'V2 Cl4 O2'
_cell_volume   159.17353176
_cell_formula_units_Z   2
loop_
 _symmetry_equiv_pos_site_id
 _symmetry_equiv_pos_as_xyz
  1  'x, y, z'
loop_
 _atom_site_type_symbol
 _atom_site_label
 _atom_site_symmetry_multiplicity
 _atom_site_fract_x
 _atom_site_fract_y
 _atom_site_fract_z
 _atom_site_occupancy
  V  V1  1  0.000045  0.936864  0.000210  1.0
  V  V2  1  0.499955  0.063136  0.999790  1.0
  Cl  Cl3  1  0.181960  0.863622  0.727628  1.0
  Cl  Cl4  1  0.318040  0.136378  0.272372  1.0
  Cl  Cl5  1  0.682323  0.863670  0.727621  1.0
  Cl  Cl6  1  0.817677  0.136330  0.272379  1.0
  O  O7  1  0.499910  0.513870  0.999542  1.0
  O  O8  1  0.000090  0.486130  0.000458  1.0
