# generated using pymatgen
data_LiAgF2
_symmetry_space_group_name_H-M   'P 1'
_cell_length_a   3.04466245
_cell_length_b   3.04449116
_cell_length_c   11.60233563
_cell_angle_alpha   90.00030237
_cell_angle_beta   90.00002806
_cell_angle_gamma   59.99656325
_symmetry_Int_Tables_number   1
_chemical_formula_structural   LiAgF2
_chemical_formula_sum   'Li2 Ag2 F4'
_cell_volume   93.13542132
_cell_formula_units_Z   2
loop_
 _symmetry_equiv_pos_site_id
 _symmetry_equiv_pos_as_xyz
  1  'x, y, z'
loop_
 _atom_site_type_symbol
 _atom_site_label
 _atom_site_symmetry_multiplicity
 _atom_site_fract_x
 _atom_site_fract_y
 _atom_site_fract_z
 _atom_site_occupancy
  Li  Li1  1  0.000001  0.000047  0.000001  1.0
  Li  Li2  1  0.999998  0.000019  0.500000  1.0
  Ag  Ag3  1  0.666577  0.666715  0.250000  1.0
  Ag  Ag4  1  0.333430  0.333347  0.750000  1.0
  F  F5  1  0.333354  0.333335  0.095630  1.0
  F  F6  1  0.666639  0.666671  0.595626  1.0
  F  F7  1  0.666620  0.666692  0.904375  1.0
  F  F8  1  0.333381  0.333374  0.404367  1.0
