# generated using pymatgen
data_LiCoS2
_symmetry_space_group_name_H-M   'P 1'
_cell_length_a   7.80428184
_cell_length_b   3.41253178
_cell_length_c   4.50180657
_cell_angle_alpha   89.99674812
_cell_angle_beta   90.00207151
_cell_angle_gamma   89.53750939
_symmetry_Int_Tables_number   1
_chemical_formula_structural   LiCoS2
_chemical_formula_sum   'Li2 Co2 S4'
_cell_volume   119.88982611
_cell_formula_units_Z   2
loop_
 _symmetry_equiv_pos_site_id
 _symmetry_equiv_pos_as_xyz
  1  'x, y, z'
loop_
 _atom_site_type_symbol
 _atom_site_label
 _atom_site_symmetry_multiplicity
 _atom_site_fract_x
 _atom_site_fract_y
 _atom_site_fract_z
 _atom_site_occupancy
  Li  Li1  1  0.124065  0.015753  0.252087  1.0
  Li  Li2  1  0.875939  0.984244  0.751974  1.0
  Co  Co3  1  0.370126  0.757257  0.749550  1.0
  Co  Co4  1  0.629912  0.242755  0.249550  1.0
  S  S5  1  0.174136  0.259941  0.750169  1.0
  S  S6  1  0.443974  0.750911  0.249962  1.0
  S  S7  1  0.556007  0.249080  0.749959  1.0
  S  S8  1  0.825841  0.740058  0.250123  1.0
