# generated using pymatgen
data_TeWO6
_symmetry_space_group_name_H-M   'P 1'
_cell_length_a   5.33112537
_cell_length_b   5.33097631
_cell_length_c   9.34579431
_cell_angle_alpha   151.22697314
_cell_angle_beta   52.24578805
_cell_angle_gamma   122.45603703
_symmetry_Int_Tables_number   1
_chemical_formula_structural   TeWO6
_chemical_formula_sum   'Te1 W1 O6'
_cell_volume   101.08252592
_cell_formula_units_Z   1
loop_
 _symmetry_equiv_pos_site_id
 _symmetry_equiv_pos_as_xyz
  1  'x, y, z'
loop_
 _atom_site_type_symbol
 _atom_site_label
 _atom_site_symmetry_multiplicity
 _atom_site_fract_x
 _atom_site_fract_y
 _atom_site_fract_z
 _atom_site_occupancy
  Te  Te1  1  0.496665  0.000037  0.496492  1.0
  W  W2  1  0.996586  0.999975  0.996498  1.0
  O  O3  1  0.355644  0.393786  0.138664  1.0
  O  O4  1  0.248517  0.783580  0.637730  1.0
  O  O5  1  0.138614  0.389259  0.744954  1.0
  O  O6  1  0.854055  0.610819  0.248503  1.0
  O  O7  1  0.744760  0.217154  0.355752  1.0
  O  O8  1  0.637759  0.605389  0.854006  1.0
