# generated using pymatgen
data_NaFe2O3
_symmetry_space_group_name_H-M   'P 1'
_cell_length_a   3.11220197
_cell_length_b   3.11222124
_cell_length_c   7.84704248
_cell_angle_alpha   90.00000003
_cell_angle_beta   89.99949941
_cell_angle_gamma   120.00019339
_symmetry_Int_Tables_number   1
_chemical_formula_structural   NaFe2O3
_chemical_formula_sum   'Na1 Fe2 O3'
_cell_volume   65.82244717
_cell_formula_units_Z   1
loop_
 _symmetry_equiv_pos_site_id
 _symmetry_equiv_pos_as_xyz
  1  'x, y, z'
loop_
 _atom_site_type_symbol
 _atom_site_label
 _atom_site_symmetry_multiplicity
 _atom_site_fract_x
 _atom_site_fract_y
 _atom_site_fract_z
 _atom_site_occupancy
  Na  Na1  1  0.000000  0.000000  0.500000  1.0
  Fe  Fe2  1  0.333344  0.666672  0.166628  1.0
  Fe  Fe3  1  0.666656  0.333328  0.833372  1.0
  O  O4  1  0.000000  0.000000  0.000000  1.0
  O  O5  1  0.333338  0.666669  0.707198  1.0
  O  O6  1  0.666662  0.333331  0.292802  1.0
