# generated using pymatgen
data_PrHo3
_symmetry_space_group_name_H-M   'P 1'
_cell_length_a   7.26881725
_cell_length_b   7.26881656
_cell_length_c   5.72264897
_cell_angle_alpha   90.00000000
_cell_angle_beta   90.00000000
_cell_angle_gamma   120.00000320
_symmetry_Int_Tables_number   1
_chemical_formula_structural   PrHo3
_chemical_formula_sum   'Pr2 Ho6'
_cell_volume   261.85157086
_cell_formula_units_Z   2
loop_
 _symmetry_equiv_pos_site_id
 _symmetry_equiv_pos_as_xyz
  1  'x, y, z'
loop_
 _atom_site_type_symbol
 _atom_site_label
 _atom_site_symmetry_multiplicity
 _atom_site_fract_x
 _atom_site_fract_y
 _atom_site_fract_z
 _atom_site_occupancy
  Pr  Pr1  1  0.666666  0.333332  0.250001  1.0
  Pr  Pr2  1  0.333334  0.666668  0.750001  1.0
  Ho  Ho3  1  0.835241  0.670482  0.750001  1.0
  Ho  Ho4  1  0.835240  0.164760  0.750001  1.0
  Ho  Ho5  1  0.329518  0.164760  0.750001  1.0
  Ho  Ho6  1  0.670481  0.835241  0.250001  1.0
  Ho  Ho7  1  0.164760  0.835241  0.250001  1.0
  Ho  Ho8  1  0.164759  0.329518  0.250001  1.0
