# generated using pymatgen
data_LiFeF4
_symmetry_space_group_name_H-M   'P 1'
_cell_length_a   5.20941913
_cell_length_b   5.07091361
_cell_length_c   5.55805447
_cell_angle_alpha   90.00000000
_cell_angle_beta   104.29067061
_cell_angle_gamma   90.00000000
_symmetry_Int_Tables_number   1
_chemical_formula_structural   LiFeF4
_chemical_formula_sum   'Li2 Fe2 F8'
_cell_volume   142.28108148
_cell_formula_units_Z   2
loop_
 _symmetry_equiv_pos_site_id
 _symmetry_equiv_pos_as_xyz
  1  'x, y, z'
loop_
 _atom_site_type_symbol
 _atom_site_label
 _atom_site_symmetry_multiplicity
 _atom_site_fract_x
 _atom_site_fract_y
 _atom_site_fract_z
 _atom_site_occupancy
  Li  Li1  1  0.500000  0.672504  0.250000  1.0
  Li  Li2  1  0.500000  0.327496  0.750000  1.0
  Fe  Fe3  1  0.000000  0.186336  0.250000  1.0
  Fe  Fe4  1  0.000000  0.813664  0.750000  1.0
  F  F5  1  0.232084  0.973101  0.102045  1.0
  F  F6  1  0.251444  0.453978  0.372554  1.0
  F  F7  1  0.232084  0.026899  0.602045  1.0
  F  F8  1  0.251444  0.546022  0.872554  1.0
  F  F9  1  0.748556  0.453978  0.127446  1.0
  F  F10  1  0.767916  0.973101  0.397955  1.0
  F  F11  1  0.748556  0.546022  0.627446  1.0
  F  F12  1  0.767916  0.026899  0.897955  1.0
