# generated using pymatgen
data_ZnPd3
_symmetry_space_group_name_H-M   'P 1'
_cell_length_a   5.58187068
_cell_length_b   5.58187153
_cell_length_c   4.49386290
_cell_angle_alpha   90.00000000
_cell_angle_beta   90.00000000
_cell_angle_gamma   119.99999497
_symmetry_Int_Tables_number   1
_chemical_formula_structural   ZnPd3
_chemical_formula_sum   'Zn2 Pd6'
_cell_volume   121.25791036
_cell_formula_units_Z   2
loop_
 _symmetry_equiv_pos_site_id
 _symmetry_equiv_pos_as_xyz
  1  'x, y, z'
loop_
 _atom_site_type_symbol
 _atom_site_label
 _atom_site_symmetry_multiplicity
 _atom_site_fract_x
 _atom_site_fract_y
 _atom_site_fract_z
 _atom_site_occupancy
  Zn  Zn1  1  0.333333  0.666667  0.750001  1.0
  Zn  Zn2  1  0.666666  0.333333  0.250000  1.0
  Pd  Pd3  1  0.168271  0.336541  0.250000  1.0
  Pd  Pd4  1  0.663460  0.831731  0.250000  1.0
  Pd  Pd5  1  0.168271  0.831731  0.250000  1.0
  Pd  Pd6  1  0.831728  0.663457  0.750001  1.0
  Pd  Pd7  1  0.336542  0.168270  0.750001  1.0
  Pd  Pd8  1  0.831729  0.168270  0.750001  1.0
