# generated using pymatgen
data_TmMg3
_symmetry_space_group_name_H-M   'P 1'
_cell_length_a   6.62749743
_cell_length_b   6.62749826
_cell_length_c   5.17302397
_cell_angle_alpha   90.00000000
_cell_angle_beta   90.00000000
_cell_angle_gamma   120.00000092
_symmetry_Int_Tables_number   1
_chemical_formula_structural   TmMg3
_chemical_formula_sum   'Tm2 Mg6'
_cell_volume   196.77698807
_cell_formula_units_Z   2
loop_
 _symmetry_equiv_pos_site_id
 _symmetry_equiv_pos_as_xyz
  1  'x, y, z'
loop_
 _atom_site_type_symbol
 _atom_site_label
 _atom_site_symmetry_multiplicity
 _atom_site_fract_x
 _atom_site_fract_y
 _atom_site_fract_z
 _atom_site_occupancy
  Tm  Tm1  1  0.666667  0.333332  0.250000  1.0
  Tm  Tm2  1  0.333333  0.666667  0.750001  1.0
  Mg  Mg3  1  0.163913  0.327825  0.250000  1.0
  Mg  Mg4  1  0.163913  0.836088  0.250000  1.0
  Mg  Mg5  1  0.672176  0.836088  0.250000  1.0
  Mg  Mg6  1  0.327825  0.163913  0.750001  1.0
  Mg  Mg7  1  0.836086  0.163913  0.750001  1.0
  Mg  Mg8  1  0.836088  0.672176  0.750001  1.0
