# generated using pymatgen
data_SrCu2O3
_symmetry_space_group_name_H-M   'P 1'
_cell_length_a   3.72765948
_cell_length_b   4.07131095
_cell_length_c   10.91203482
_cell_angle_alpha   90.00000000
_cell_angle_beta   90.00000000
_cell_angle_gamma   90.00000000
_symmetry_Int_Tables_number   1
_chemical_formula_structural   SrCu2O3
_chemical_formula_sum   'Sr2 Cu4 O6'
_cell_volume   165.60606934
_cell_formula_units_Z   2
loop_
 _symmetry_equiv_pos_site_id
 _symmetry_equiv_pos_as_xyz
  1  'x, y, z'
loop_
 _atom_site_type_symbol
 _atom_site_label
 _atom_site_symmetry_multiplicity
 _atom_site_fract_x
 _atom_site_fract_y
 _atom_site_fract_z
 _atom_site_occupancy
  Sr  Sr1  1  0.366593  0.250000  0.250000  1.0
  Sr  Sr2  1  0.633407  0.750000  0.750000  1.0
  Cu  Cu3  1  0.895177  0.750000  0.414997  1.0
  Cu  Cu4  1  0.895177  0.750000  0.085003  1.0
  Cu  Cu5  1  0.104823  0.250000  0.585003  1.0
  Cu  Cu6  1  0.104823  0.250000  0.914997  1.0
  O  O7  1  0.915112  0.250000  0.423446  1.0
  O  O8  1  0.915112  0.250000  0.076554  1.0
  O  O9  1  0.084888  0.750000  0.576554  1.0
  O  O10  1  0.084888  0.750000  0.923446  1.0
  O  O11  1  0.729596  0.750000  0.250000  1.0
  O  O12  1  0.270404  0.250000  0.750000  1.0
