# generated using pymatgen
data_Fe11MoC4
_symmetry_space_group_name_H-M   'P 1'
_cell_length_a   5.58597501
_cell_length_b   10.14367675
_cell_length_c   2.92246858
_cell_angle_alpha   90.00000000
_cell_angle_beta   90.11739018
_cell_angle_gamma   90.00000000
_symmetry_Int_Tables_number   1
_chemical_formula_structural   Fe11MoC4
_chemical_formula_sum   'Fe11 Mo1 C4'
_cell_volume   165.59351644
_cell_formula_units_Z   1
loop_
 _symmetry_equiv_pos_site_id
 _symmetry_equiv_pos_as_xyz
  1  'x, y, z'
loop_
 _atom_site_type_symbol
 _atom_site_label
 _atom_site_symmetry_multiplicity
 _atom_site_fract_x
 _atom_site_fract_y
 _atom_site_fract_z
 _atom_site_occupancy
  Fe  Fe1  1  0.122487  0.073648  0.250116  1.0
  Fe  Fe2  1  0.370557  0.564217  0.746232  1.0
  Fe  Fe3  1  0.370557  0.935783  0.746232  1.0
  Fe  Fe4  1  0.874891  0.563528  0.747787  1.0
  Fe  Fe5  1  0.874891  0.936472  0.747787  1.0
  Fe  Fe6  1  0.621624  0.434833  0.252585  1.0
  Fe  Fe7  1  0.621624  0.065167  0.252585  1.0
  Fe  Fe8  1  0.122487  0.426352  0.250116  1.0
  Fe  Fe9  1  0.873707  0.250000  0.765215  1.0
  Fe  Fe10  1  0.127617  0.750000  0.238246  1.0
  Fe  Fe11  1  0.374441  0.250000  0.759865  1.0
  Mo  Mo12  1  0.629079  0.750000  0.238772  1.0
  C  C13  1  0.626108  0.250000  0.265345  1.0
  C  C14  1  0.903448  0.750000  0.736387  1.0
  C  C15  1  0.358499  0.750000  0.736482  1.0
  C  C16  1  0.127983  0.250000  0.266247  1.0
