# generated using pymatgen
data_SmAgO2
_symmetry_space_group_name_H-M   'P 1'
_cell_length_a   3.65928561
_cell_length_b   6.60825644
_cell_length_c   3.65928584
_cell_angle_alpha   106.07361673
_cell_angle_beta   60.00000198
_cell_angle_gamma   106.07361900
_symmetry_Int_Tables_number   1
_chemical_formula_structural   SmAgO2
_chemical_formula_sum   'Sm1 Ag1 O2'
_cell_volume   72.61014715
_cell_formula_units_Z   1
loop_
 _symmetry_equiv_pos_site_id
 _symmetry_equiv_pos_as_xyz
  1  'x, y, z'
loop_
 _atom_site_type_symbol
 _atom_site_label
 _atom_site_symmetry_multiplicity
 _atom_site_fract_x
 _atom_site_fract_y
 _atom_site_fract_z
 _atom_site_occupancy
  Sm  Sm1  1  0.500000  0.500000  0.500000  1.0
  Ag  Ag2  1  0.000000  0.000000  0.000000  1.0
  O  O3  1  0.110762  0.332287  0.110762  1.0
  O  O4  1  0.889238  0.667713  0.889238  1.0
