# generated using pymatgen
data_Nb3AlC2
_symmetry_space_group_name_H-M   'P 1'
_cell_length_a   3.13051854
_cell_length_b   3.13051826
_cell_length_c   19.24987737
_cell_angle_alpha   90.00000000
_cell_angle_beta   90.00000000
_cell_angle_gamma   119.99999203
_symmetry_Int_Tables_number   1
_chemical_formula_structural   Nb3AlC2
_chemical_formula_sum   'Nb6 Al2 C4'
_cell_volume   163.37708960
_cell_formula_units_Z   2
loop_
 _symmetry_equiv_pos_site_id
 _symmetry_equiv_pos_as_xyz
  1  'x, y, z'
loop_
 _atom_site_type_symbol
 _atom_site_label
 _atom_site_symmetry_multiplicity
 _atom_site_fract_x
 _atom_site_fract_y
 _atom_site_fract_z
 _atom_site_occupancy
  Nb  Nb1  1  0.666667  0.333333  0.366204  1.0
  Nb  Nb2  1  0.333333  0.666667  0.866204  1.0
  Nb  Nb3  1  0.333333  0.666667  0.633796  1.0
  Nb  Nb4  1  0.666667  0.333333  0.133796  1.0
  Nb  Nb5  1  0.000000  0.000000  0.500000  1.0
  Nb  Nb6  1  0.000000  0.000000  0.000000  1.0
  Al  Al7  1  0.000000  0.000000  0.750000  1.0
  Al  Al8  1  0.000000  0.000000  0.250000  1.0
  C  C9  1  0.333333  0.666667  0.430781  1.0
  C  C10  1  0.666667  0.333333  0.930781  1.0
  C  C11  1  0.333333  0.666667  0.069219  1.0
  C  C12  1  0.666667  0.333333  0.569219  1.0
