# generated using pymatgen
data_LaAgO2
_symmetry_space_group_name_H-M   'P 1'
_cell_length_a   3.83664401
_cell_length_b   6.61295651
_cell_length_c   3.83664333
_cell_angle_alpha   106.86306102
_cell_angle_beta   60.00000289
_cell_angle_gamma   106.86306313
_symmetry_Int_Tables_number   1
_chemical_formula_structural   LaAgO2
_chemical_formula_sum   'La1 Ag1 O2'
_cell_volume   79.43044282
_cell_formula_units_Z   1
loop_
 _symmetry_equiv_pos_site_id
 _symmetry_equiv_pos_as_xyz
  1  'x, y, z'
loop_
 _atom_site_type_symbol
 _atom_site_label
 _atom_site_symmetry_multiplicity
 _atom_site_fract_x
 _atom_site_fract_y
 _atom_site_fract_z
 _atom_site_occupancy
  La  La1  1  0.500000  0.500000  0.500000  1.0
  Ag  Ag2  1  0.000000  0.000000  0.000000  1.0
  O  O3  1  0.110862  0.332587  0.110862  1.0
  O  O4  1  0.889138  0.667413  0.889138  1.0
