# generated using pymatgen
data_Zn3Cu
_symmetry_space_group_name_H-M   'P 1'
_cell_length_a   5.42246829
_cell_length_b   5.42246840
_cell_length_c   4.31885877
_cell_angle_alpha   90.00000000
_cell_angle_beta   90.00000000
_cell_angle_gamma   119.99999927
_symmetry_Int_Tables_number   1
_chemical_formula_structural   Zn3Cu
_chemical_formula_sum   'Zn6 Cu2'
_cell_volume   109.97492847
_cell_formula_units_Z   2
loop_
 _symmetry_equiv_pos_site_id
 _symmetry_equiv_pos_as_xyz
  1  'x, y, z'
loop_
 _atom_site_type_symbol
 _atom_site_label
 _atom_site_symmetry_multiplicity
 _atom_site_fract_x
 _atom_site_fract_y
 _atom_site_fract_z
 _atom_site_occupancy
  Zn  Zn1  1  0.169189  0.338378  0.250000  1.0
  Zn  Zn2  1  0.661621  0.830809  0.250000  1.0
  Zn  Zn3  1  0.169188  0.830809  0.250000  1.0
  Zn  Zn4  1  0.830811  0.661621  0.749999  1.0
  Zn  Zn5  1  0.338379  0.169190  0.749999  1.0
  Zn  Zn6  1  0.830811  0.169190  0.749999  1.0
  Cu  Cu7  1  0.333333  0.666666  0.749999  1.0
  Cu  Cu8  1  0.666667  0.333333  0.250000  1.0
