# generated using pymatgen
data_Mg3ZnO4
_symmetry_space_group_name_H-M   'P 1'
_cell_length_a   3.02807556
_cell_length_b   5.23724804
_cell_length_c   5.23724804
_cell_angle_alpha   70.50936349
_cell_angle_beta   90.00000000
_cell_angle_gamma   90.00000000
_symmetry_Int_Tables_number   1
_chemical_formula_structural   Mg3ZnO4
_chemical_formula_sum   'Mg3 Zn1 O4'
_cell_volume   78.29691887
_cell_formula_units_Z   1
loop_
 _symmetry_equiv_pos_site_id
 _symmetry_equiv_pos_as_xyz
  1  'x, y, z'
loop_
 _atom_site_type_symbol
 _atom_site_label
 _atom_site_symmetry_multiplicity
 _atom_site_fract_x
 _atom_site_fract_y
 _atom_site_fract_z
 _atom_site_occupancy
  Mg  Mg1  1  0.000000  0.500000  0.500000  1.0
  Mg  Mg2  1  0.500000  0.000000  0.500000  1.0
  Mg  Mg3  1  0.500000  0.500000  0.000000  1.0
  Zn  Zn4  1  0.000000  0.000000  0.000000  1.0
  O  O5  1  0.000000  0.746823  0.746823  1.0
  O  O6  1  0.500000  0.255926  0.744074  1.0
  O  O7  1  0.500000  0.744074  0.255926  1.0
  O  O8  1  0.000000  0.253177  0.253177  1.0
