# generated using pymatgen
data_BiOF
_symmetry_space_group_name_H-M   'P 1'
_cell_length_a   6.53816252
_cell_length_b   7.74926515
_cell_length_c   3.64413877
_cell_angle_alpha   90.00000000
_cell_angle_beta   90.00000000
_cell_angle_gamma   90.00000000
_symmetry_Int_Tables_number   1
_chemical_formula_structural   BiOF
_chemical_formula_sum   'Bi4 O4 F4'
_cell_volume   184.63377079
_cell_formula_units_Z   4
loop_
 _symmetry_equiv_pos_site_id
 _symmetry_equiv_pos_as_xyz
  1  'x, y, z'
loop_
 _atom_site_type_symbol
 _atom_site_label
 _atom_site_symmetry_multiplicity
 _atom_site_fract_x
 _atom_site_fract_y
 _atom_site_fract_z
 _atom_site_occupancy
  Bi  Bi1  1  0.203347  0.901709  0.750000  1.0
  Bi  Bi2  1  0.296653  0.401709  0.250000  1.0
  Bi  Bi3  1  0.703347  0.598291  0.750000  1.0
  Bi  Bi4  1  0.796653  0.098291  0.250000  1.0
  O  O5  1  0.006056  0.137985  0.750000  1.0
  O  O6  1  0.493945  0.637985  0.250000  1.0
  O  O7  1  0.506055  0.362015  0.750000  1.0
  O  O8  1  0.993945  0.862015  0.250000  1.0
  F  F9  1  0.145314  0.582827  0.750000  1.0
  F  F10  1  0.354686  0.082827  0.250000  1.0
  F  F11  1  0.645314  0.917173  0.750000  1.0
  F  F12  1  0.854686  0.417173  0.250000  1.0
