# generated using pymatgen
data_Lu2Ta2O5
_symmetry_space_group_name_H-M   'P 1'
_cell_length_a   9.76297482
_cell_length_b   3.46784692
_cell_length_c   3.46780778
_cell_angle_alpha   90.00063097
_cell_angle_beta   89.99938598
_cell_angle_gamma   89.99765162
_symmetry_Int_Tables_number   1
_chemical_formula_structural   Lu2Ta2O5
_chemical_formula_sum   'Lu2 Ta2 O5'
_cell_volume   117.40784148
_cell_formula_units_Z   1
loop_
 _symmetry_equiv_pos_site_id
 _symmetry_equiv_pos_as_xyz
  1  'x, y, z'
loop_
 _atom_site_type_symbol
 _atom_site_label
 _atom_site_symmetry_multiplicity
 _atom_site_fract_x
 _atom_site_fract_y
 _atom_site_fract_z
 _atom_site_occupancy
  Lu  Lu1  1  0.264352  0.499982  0.499988  1.0
  Lu  Lu2  1  0.735635  0.500018  0.500029  1.0
  Ta  Ta3  1  0.000009  0.999999  0.999997  1.0
  Ta  Ta4  1  0.500000  0.999992  0.999998  1.0
  O  O5  1  0.123753  0.500006  0.999985  1.0
  O  O6  1  0.876240  0.499992  0.000017  1.0
  O  O7  1  0.500001  0.499985  0.499991  1.0
  O  O8  1  0.123759  0.000001  0.499984  1.0
  O  O9  1  0.876248  0.000014  0.500002  1.0
