# generated using pymatgen
data_BaAgO2
_symmetry_space_group_name_H-M   'P 1'
_cell_length_a   3.93321460
_cell_length_b   4.40182891
_cell_length_c   9.01880341
_cell_angle_alpha   90.00000000
_cell_angle_beta   77.40510227
_cell_angle_gamma   90.00000000
_symmetry_Int_Tables_number   1
_chemical_formula_structural   BaAgO2
_chemical_formula_sum   'Ba2 Ag2 O4'
_cell_volume   152.38813068
_cell_formula_units_Z   2
loop_
 _symmetry_equiv_pos_site_id
 _symmetry_equiv_pos_as_xyz
  1  'x, y, z'
loop_
 _atom_site_type_symbol
 _atom_site_label
 _atom_site_symmetry_multiplicity
 _atom_site_fract_x
 _atom_site_fract_y
 _atom_site_fract_z
 _atom_site_occupancy
  Ba  Ba1  1  0.667995  0.250000  0.664010  1.0
  Ba  Ba2  1  0.332005  0.750000  0.335990  1.0
  Ag  Ag3  1  0.937161  0.250000  0.125678  1.0
  Ag  Ag4  1  0.062839  0.750000  0.874322  1.0
  O  O5  1  0.817127  0.250000  0.365746  1.0
  O  O6  1  0.058717  0.250000  0.882565  1.0
  O  O7  1  0.182873  0.750000  0.634254  1.0
  O  O8  1  0.941283  0.750000  0.117435  1.0
