# generated using pymatgen
data_LiAgO2
_symmetry_space_group_name_H-M   'P 1'
_cell_length_a   2.99773611
_cell_length_b   3.33838313
_cell_length_c   5.35553572
_cell_angle_alpha   80.75812416
_cell_angle_beta   73.74739778
_cell_angle_gamma   63.32173435
_symmetry_Int_Tables_number   1
_chemical_formula_structural   LiAgO2
_chemical_formula_sum   'Li1 Ag1 O2'
_cell_volume   45.93828083
_cell_formula_units_Z   1
loop_
 _symmetry_equiv_pos_site_id
 _symmetry_equiv_pos_as_xyz
  1  'x, y, z'
loop_
 _atom_site_type_symbol
 _atom_site_label
 _atom_site_symmetry_multiplicity
 _atom_site_fract_x
 _atom_site_fract_y
 _atom_site_fract_z
 _atom_site_occupancy
  Li  Li1  1  0.500000  0.500000  0.500000  1.0
  Ag  Ag2  1  0.500000  0.000000  0.000000  1.0
  O  O3  1  0.898744  0.930889  0.271623  1.0
  O  O4  1  0.101256  0.069111  0.728377  1.0
