# generated using pymatgen
data_MnAgO2
_symmetry_space_group_name_H-M   'P 1'
_cell_length_a   2.97412318
_cell_length_b   3.20906942
_cell_length_c   6.41694384
_cell_angle_alpha   100.91400918
_cell_angle_beta   90.00000566
_cell_angle_gamma   117.60629766
_symmetry_Int_Tables_number   1
_chemical_formula_structural   MnAgO2
_chemical_formula_sum   'Mn1 Ag1 O2'
_cell_volume   53.01863281
_cell_formula_units_Z   1
loop_
 _symmetry_equiv_pos_site_id
 _symmetry_equiv_pos_as_xyz
  1  'x, y, z'
loop_
 _atom_site_type_symbol
 _atom_site_label
 _atom_site_symmetry_multiplicity
 _atom_site_fract_x
 _atom_site_fract_y
 _atom_site_fract_z
 _atom_site_occupancy
  Mn  Mn1  1  0.500000  0.000000  0.500000  1.0
  Ag  Ag2  1  0.000000  0.000000  0.000000  1.0
  O  O3  1  0.101427  0.202855  0.336125  1.0
  O  O4  1  0.898573  0.797145  0.663875  1.0
