# generated using pymatgen
data_NiPd3
_symmetry_space_group_name_H-M   'P 1'
_cell_length_a   5.38998066
_cell_length_b   5.38998020
_cell_length_c   4.42051399
_cell_angle_alpha   90.00000000
_cell_angle_beta   90.00000000
_cell_angle_gamma   119.99999680
_symmetry_Int_Tables_number   1
_chemical_formula_structural   NiPd3
_chemical_formula_sum   'Ni2 Pd6'
_cell_volume   111.21869419
_cell_formula_units_Z   2
loop_
 _symmetry_equiv_pos_site_id
 _symmetry_equiv_pos_as_xyz
  1  'x, y, z'
loop_
 _atom_site_type_symbol
 _atom_site_label
 _atom_site_symmetry_multiplicity
 _atom_site_fract_x
 _atom_site_fract_y
 _atom_site_fract_z
 _atom_site_occupancy
  Ni  Ni1  1  0.666666  0.333333  0.250001  1.0
  Ni  Ni2  1  0.333334  0.666668  0.750002  1.0
  Pd  Pd3  1  0.830704  0.169296  0.750002  1.0
  Pd  Pd4  1  0.338591  0.169296  0.750002  1.0
  Pd  Pd5  1  0.830704  0.661409  0.750002  1.0
  Pd  Pd6  1  0.169294  0.830705  0.250001  1.0
  Pd  Pd7  1  0.661409  0.830705  0.250001  1.0
  Pd  Pd8  1  0.169295  0.338590  0.250001  1.0
