# generated using pymatgen
data_BaAuO2
_symmetry_space_group_name_H-M   'P 1'
_cell_length_a   3.93256210
_cell_length_b   6.37250308
_cell_length_c   6.37250273
_cell_angle_alpha   108.42522122
_cell_angle_beta   90.15502762
_cell_angle_gamma   90.15503442
_symmetry_Int_Tables_number   1
_chemical_formula_structural   BaAuO2
_chemical_formula_sum   'Ba2 Au2 O4'
_cell_volume   151.50844830
_cell_formula_units_Z   2
loop_
 _symmetry_equiv_pos_site_id
 _symmetry_equiv_pos_as_xyz
  1  'x, y, z'
loop_
 _atom_site_type_symbol
 _atom_site_label
 _atom_site_symmetry_multiplicity
 _atom_site_fract_x
 _atom_site_fract_y
 _atom_site_fract_z
 _atom_site_occupancy
  Ba  Ba1  1  0.000000  0.500000  0.000000  1.0
  Ba  Ba2  1  0.000000  0.000000  0.500000  1.0
  Au  Au3  1  0.500000  0.000000  0.000000  1.0
  Au  Au4  1  0.500000  0.500000  0.500000  1.0
  O  O5  1  0.728230  0.753172  0.753172  1.0
  O  O6  1  0.500000  0.301136  0.698864  1.0
  O  O7  1  0.500000  0.698864  0.301136  1.0
  O  O8  1  0.271770  0.246828  0.246828  1.0
