# generated using pymatgen
data_ErInNi4
_symmetry_space_group_name_H-M   'P 1'
_cell_length_a   4.96218733
_cell_length_b   4.96218733
_cell_length_c   4.96218733
_cell_angle_alpha   60.00000000
_cell_angle_beta   60.00000000
_cell_angle_gamma   60.00000000
_symmetry_Int_Tables_number   1
_chemical_formula_structural   ErInNi4
_chemical_formula_sum   'Er1 In1 Ni4'
_cell_volume   86.39815506
_cell_formula_units_Z   1
loop_
 _symmetry_equiv_pos_site_id
 _symmetry_equiv_pos_as_xyz
  1  'x, y, z'
loop_
 _atom_site_type_symbol
 _atom_site_label
 _atom_site_symmetry_multiplicity
 _atom_site_fract_x
 _atom_site_fract_y
 _atom_site_fract_z
 _atom_site_occupancy
  Er  Er1  1  0.750000  0.750000  0.750000  1.0
  In  In2  1  0.000000  0.000000  0.000000  1.0
  Ni  Ni3  1  0.374162  0.374162  0.374162  1.0
  Ni  Ni4  1  0.877514  0.374162  0.374162  1.0
  Ni  Ni5  1  0.374162  0.877514  0.374162  1.0
  Ni  Ni6  1  0.374162  0.374162  0.877514  1.0
