# generated using pymatgen
data_LiCuS
_symmetry_space_group_name_H-M   'P 1'
_cell_length_a   3.95411269
_cell_length_b   6.58621962
_cell_length_c   7.52680978
_cell_angle_alpha   90.00000000
_cell_angle_beta   90.00000000
_cell_angle_gamma   90.00000000
_symmetry_Int_Tables_number   1
_chemical_formula_structural   LiCuS
_chemical_formula_sum   'Li4 Cu4 S4'
_cell_volume   196.01810718
_cell_formula_units_Z   4
loop_
 _symmetry_equiv_pos_site_id
 _symmetry_equiv_pos_as_xyz
  1  'x, y, z'
loop_
 _atom_site_type_symbol
 _atom_site_label
 _atom_site_symmetry_multiplicity
 _atom_site_fract_x
 _atom_site_fract_y
 _atom_site_fract_z
 _atom_site_occupancy
  Li  Li1  1  0.000000  0.059667  0.041214  1.0
  Li  Li2  1  0.000000  0.940333  0.541214  1.0
  Li  Li3  1  0.500000  0.435652  0.932501  1.0
  Li  Li4  1  0.500000  0.564348  0.432501  1.0
  Cu  Cu5  1  0.000000  0.418689  0.224655  1.0
  Cu  Cu6  1  0.000000  0.581311  0.724655  1.0
  Cu  Cu7  1  0.500000  0.919526  0.251090  1.0
  Cu  Cu8  1  0.500000  0.080474  0.751090  1.0
  S  S9  1  0.000000  0.758384  0.255405  1.0
  S  S10  1  0.000000  0.241616  0.755405  1.0
  S  S11  1  0.500000  0.258626  0.221105  1.0
  S  S12  1  0.500000  0.741374  0.721105  1.0
