# generated using pymatgen
data_TiPt3
_symmetry_space_group_name_H-M   'P 1'
_cell_length_a   5.61230466
_cell_length_b   5.61230402
_cell_length_c   4.52159283
_cell_angle_alpha   90.00000000
_cell_angle_beta   90.00000000
_cell_angle_gamma   119.99999763
_symmetry_Int_Tables_number   1
_chemical_formula_structural   TiPt3
_chemical_formula_sum   'Ti2 Pt6'
_cell_volume   123.34016378
_cell_formula_units_Z   2
loop_
 _symmetry_equiv_pos_site_id
 _symmetry_equiv_pos_as_xyz
  1  'x, y, z'
loop_
 _atom_site_type_symbol
 _atom_site_label
 _atom_site_symmetry_multiplicity
 _atom_site_fract_x
 _atom_site_fract_y
 _atom_site_fract_z
 _atom_site_occupancy
  Ti  Ti1  1  0.333333  0.666666  0.749999  1.0
  Ti  Ti2  1  0.666666  0.333333  0.249999  1.0
  Pt  Pt3  1  0.167396  0.334792  0.249999  1.0
  Pt  Pt4  1  0.665209  0.832607  0.249999  1.0
  Pt  Pt5  1  0.167397  0.832607  0.249999  1.0
  Pt  Pt6  1  0.832604  0.665209  0.749999  1.0
  Pt  Pt7  1  0.334792  0.167397  0.749999  1.0
  Pt  Pt8  1  0.832604  0.167397  0.749999  1.0
