# generated using pymatgen
data_AuO2F
_symmetry_space_group_name_H-M   'P 1'
_cell_length_a   4.34929430
_cell_length_b   5.50178819
_cell_length_c   5.50178806
_cell_angle_alpha   101.93190801
_cell_angle_beta   90.00000000
_cell_angle_gamma   90.00000000
_symmetry_Int_Tables_number   1
_chemical_formula_structural   AuO2F
_chemical_formula_sum   'Au2 O4 F2'
_cell_volume   128.80724722
_cell_formula_units_Z   2
loop_
 _symmetry_equiv_pos_site_id
 _symmetry_equiv_pos_as_xyz
  1  'x, y, z'
loop_
 _atom_site_type_symbol
 _atom_site_label
 _atom_site_symmetry_multiplicity
 _atom_site_fract_x
 _atom_site_fract_y
 _atom_site_fract_z
 _atom_site_occupancy
  Au  Au1  1  0.000000  0.723963  0.723963  1.0
  Au  Au2  1  0.500000  0.276037  0.276037  1.0
  O  O3  1  0.717347  0.028536  0.784931  1.0
  O  O4  1  0.217347  0.971464  0.215069  1.0
  O  O5  1  0.282653  0.784931  0.028536  1.0
  O  O6  1  0.782653  0.215069  0.971464  1.0
  F  F7  1  0.750000  0.615028  0.384972  1.0
  F  F8  1  0.250000  0.384972  0.615028  1.0
