# generated using pymatgen
data_BaCuO2
_symmetry_space_group_name_H-M   'P 1'
_cell_length_a   4.02080570
_cell_length_b   4.09571129
_cell_length_c   8.56241295
_cell_angle_alpha   90.00000000
_cell_angle_beta   76.42052934
_cell_angle_gamma   90.00000000
_symmetry_Int_Tables_number   1
_chemical_formula_structural   BaCuO2
_chemical_formula_sum   'Ba2 Cu2 O4'
_cell_volume   137.06451931
_cell_formula_units_Z   2
loop_
 _symmetry_equiv_pos_site_id
 _symmetry_equiv_pos_as_xyz
  1  'x, y, z'
loop_
 _atom_site_type_symbol
 _atom_site_label
 _atom_site_symmetry_multiplicity
 _atom_site_fract_x
 _atom_site_fract_y
 _atom_site_fract_z
 _atom_site_occupancy
  Ba  Ba1  1  0.336377  0.250000  0.327247  1.0
  Ba  Ba2  1  0.663623  0.750000  0.672753  1.0
  Cu  Cu3  1  0.061574  0.250000  0.876852  1.0
  Cu  Cu4  1  0.938426  0.750000  0.123148  1.0
  O  O5  1  0.824306  0.750000  0.351388  1.0
  O  O6  1  0.948186  0.250000  0.103628  1.0
  O  O7  1  0.175694  0.250000  0.648612  1.0
  O  O8  1  0.051814  0.750000  0.896372  1.0
