# generated using pymatgen
data_Hf3Ge2
_symmetry_space_group_name_H-M   'P 1'
_cell_length_a   7.16504901
_cell_length_b   7.16504901
_cell_length_c   3.70219972
_cell_angle_alpha   90.00000000
_cell_angle_beta   90.00000000
_cell_angle_gamma   90.00000000
_symmetry_Int_Tables_number   1
_chemical_formula_structural   Hf3Ge2
_chemical_formula_sum   'Hf6 Ge4'
_cell_volume   190.06326013
_cell_formula_units_Z   2
loop_
 _symmetry_equiv_pos_site_id
 _symmetry_equiv_pos_as_xyz
  1  'x, y, z'
loop_
 _atom_site_type_symbol
 _atom_site_label
 _atom_site_symmetry_multiplicity
 _atom_site_fract_x
 _atom_site_fract_y
 _atom_site_fract_z
 _atom_site_occupancy
  Hf  Hf1  1  0.000000  0.000000  0.000000  1.0
  Hf  Hf2  1  0.499999  0.499999  0.000000  1.0
  Hf  Hf3  1  0.170076  0.670075  0.500000  1.0
  Hf  Hf4  1  0.829924  0.329925  0.500000  1.0
  Hf  Hf5  1  0.670075  0.829924  0.500000  1.0
  Hf  Hf6  1  0.329925  0.170076  0.500000  1.0
  Ge  Ge7  1  0.630775  0.130775  0.000000  1.0
  Ge  Ge8  1  0.369225  0.869226  0.000000  1.0
  Ge  Ge9  1  0.130775  0.369225  0.000000  1.0
  Ge  Ge10  1  0.869226  0.630775  0.000000  1.0
