# generated using pymatgen
data_BiOF
_symmetry_space_group_name_H-M   'P 1'
_cell_length_a   4.01434500
_cell_length_b   4.01401000
_cell_length_c   5.80658000
_cell_angle_alpha   90.00000000
_cell_angle_beta   90.00000000
_cell_angle_gamma   90.00000000
_symmetry_Int_Tables_number   1
_chemical_formula_structural   BiOF
_chemical_formula_sum   'Bi2 O2 F2'
_cell_volume   93.56502927
_cell_formula_units_Z   2
loop_
 _symmetry_equiv_pos_site_id
 _symmetry_equiv_pos_as_xyz
  1  'x, y, z'
loop_
 _atom_site_type_symbol
 _atom_site_label
 _atom_site_symmetry_multiplicity
 _atom_site_fract_x
 _atom_site_fract_y
 _atom_site_fract_z
 _atom_site_occupancy
  Bi  Bi1  1  0.000000  0.500000  0.715967  1.0
  Bi  Bi2  1  0.500000  0.000000  0.284033  1.0
  O  O3  1  0.000000  0.000000  0.499884  1.0
  O  O4  1  0.500000  0.500000  0.500116  1.0
  F  F5  1  0.000000  0.000000  0.999754  1.0
  F  F6  1  0.500000  0.500000  0.000246  1.0
