# generated using pymatgen
data_NaCuO2
_symmetry_space_group_name_H-M   'P 1'
_cell_length_a   3.72003934
_cell_length_b   5.42051938
_cell_length_c   5.77939768
_cell_angle_alpha   90.00000000
_cell_angle_beta   71.22599253
_cell_angle_gamma   90.00000000
_symmetry_Int_Tables_number   1
_chemical_formula_structural   NaCuO2
_chemical_formula_sum   'Na2 Cu2 O4'
_cell_volume   110.33851493
_cell_formula_units_Z   2
loop_
 _symmetry_equiv_pos_site_id
 _symmetry_equiv_pos_as_xyz
  1  'x, y, z'
loop_
 _atom_site_type_symbol
 _atom_site_label
 _atom_site_symmetry_multiplicity
 _atom_site_fract_x
 _atom_site_fract_y
 _atom_site_fract_z
 _atom_site_occupancy
  Na  Na1  1  0.290311  0.250000  0.419378  1.0
  Na  Na2  1  0.709689  0.750000  0.580622  1.0
  Cu  Cu3  1  0.003337  0.250000  0.993326  1.0
  Cu  Cu4  1  0.996663  0.750000  0.006674  1.0
  O  O5  1  0.885502  0.493589  0.228997  1.0
  O  O6  1  0.114498  0.506411  0.771003  1.0
  O  O7  1  0.885502  0.006411  0.228997  1.0
  O  O8  1  0.114498  0.993589  0.771003  1.0
