# generated using pymatgen
data_LiCuS
_symmetry_space_group_name_H-M   'P 1'
_cell_length_a   8.32292937
_cell_length_b   5.15033701
_cell_length_c   4.92905477
_cell_angle_alpha   90.00000000
_cell_angle_beta   90.00000000
_cell_angle_gamma   90.00000000
_symmetry_Int_Tables_number   1
_chemical_formula_structural   LiCuS
_chemical_formula_sum   'Li4 Cu4 S4'
_cell_volume   211.28832532
_cell_formula_units_Z   4
loop_
 _symmetry_equiv_pos_site_id
 _symmetry_equiv_pos_as_xyz
  1  'x, y, z'
loop_
 _atom_site_type_symbol
 _atom_site_label
 _atom_site_symmetry_multiplicity
 _atom_site_fract_x
 _atom_site_fract_y
 _atom_site_fract_z
 _atom_site_occupancy
  Li  Li1  1  0.138536  0.486003  0.750278  1.0
  Li  Li2  1  0.361464  0.986003  0.250278  1.0
  Li  Li3  1  0.638536  0.013997  0.750278  1.0
  Li  Li4  1  0.861464  0.513997  0.250278  1.0
  Cu  Cu5  1  0.999801  0.000112  0.002191  1.0
  Cu  Cu6  1  0.000199  0.999888  0.502191  1.0
  Cu  Cu7  1  0.499801  0.499888  0.002191  1.0
  Cu  Cu8  1  0.500199  0.500112  0.502191  1.0
  S  S9  1  0.127616  0.282132  0.251931  1.0
  S  S10  1  0.372384  0.782132  0.751931  1.0
  S  S11  1  0.627616  0.217868  0.251931  1.0
  S  S12  1  0.872384  0.717868  0.751931  1.0
