# generated using pymatgen
data_TlCuO2
_symmetry_space_group_name_H-M   'P 1'
_cell_length_a   5.48564563
_cell_length_b   5.67506915
_cell_length_c   5.85991525
_cell_angle_alpha   118.32538204
_cell_angle_beta   90.00000000
_cell_angle_gamma   90.00000000
_symmetry_Int_Tables_number   1
_chemical_formula_structural   TlCuO2
_chemical_formula_sum   'Tl2 Cu2 O4'
_cell_volume   160.58492902
_cell_formula_units_Z   2
loop_
 _symmetry_equiv_pos_site_id
 _symmetry_equiv_pos_as_xyz
  1  'x, y, z'
loop_
 _atom_site_type_symbol
 _atom_site_label
 _atom_site_symmetry_multiplicity
 _atom_site_fract_x
 _atom_site_fract_y
 _atom_site_fract_z
 _atom_site_occupancy
  Tl  Tl1  1  0.250000  0.695265  0.859280  1.0
  Tl  Tl2  1  0.750000  0.304735  0.140720  1.0
  Cu  Cu3  1  0.750000  0.988130  0.494700  1.0
  Cu  Cu4  1  0.250000  0.011870  0.505300  1.0
  O  O5  1  0.500038  0.999981  0.286884  1.0
  O  O6  1  0.499962  0.000019  0.713116  1.0
  O  O7  1  0.000038  0.000019  0.713116  1.0
  O  O8  1  0.999962  0.999981  0.286884  1.0
