# generated using pymatgen
data_NdCuTeO
_symmetry_space_group_name_H-M   'P 1'
_cell_length_a   4.12293160
_cell_length_b   4.12293160
_cell_length_c   9.40757189
_cell_angle_alpha   90.00000000
_cell_angle_beta   90.00000000
_cell_angle_gamma   90.00000000
_symmetry_Int_Tables_number   1
_chemical_formula_structural   NdCuTeO
_chemical_formula_sum   'Nd2 Cu2 Te2 O2'
_cell_volume   159.91522206
_cell_formula_units_Z   2
loop_
 _symmetry_equiv_pos_site_id
 _symmetry_equiv_pos_as_xyz
  1  'x, y, z'
loop_
 _atom_site_type_symbol
 _atom_site_label
 _atom_site_symmetry_multiplicity
 _atom_site_fract_x
 _atom_site_fract_y
 _atom_site_fract_z
 _atom_site_occupancy
  Nd  Nd1  1  0.750001  0.750001  0.376732  1.0
  Nd  Nd2  1  0.250001  0.250001  0.623269  1.0
  Cu  Cu3  1  0.750001  0.250001  0.000000  1.0
  Cu  Cu4  1  0.250001  0.750001  0.000000  1.0
  Te  Te5  1  0.250001  0.250001  0.179546  1.0
  Te  Te6  1  0.750001  0.750001  0.820453  1.0
  O  O7  1  0.750001  0.250001  0.500000  1.0
  O  O8  1  0.250001  0.750001  0.500000  1.0
