# generated using pymatgen
data_LiAlH4
_symmetry_space_group_name_H-M   'P 1'
_cell_length_a   4.57575578
_cell_length_b   4.57575578
_cell_length_c   6.04741820
_cell_angle_alpha   112.22984914
_cell_angle_beta   112.22984904
_cell_angle_gamma   90.00000000
_symmetry_Int_Tables_number   1
_chemical_formula_structural   LiAlH4
_chemical_formula_sum   'Li2 Al2 H8'
_cell_volume   106.97115778
_cell_formula_units_Z   2
loop_
 _symmetry_equiv_pos_site_id
 _symmetry_equiv_pos_as_xyz
  1  'x, y, z'
loop_
 _atom_site_type_symbol
 _atom_site_label
 _atom_site_symmetry_multiplicity
 _atom_site_fract_x
 _atom_site_fract_y
 _atom_site_fract_z
 _atom_site_occupancy
  Li  Li1  1  0.625000  0.875000  0.250000  1.0
  Li  Li2  1  0.375000  0.125000  0.750000  1.0
  Al  Al3  1  0.125000  0.375000  0.250000  1.0
  Al  Al4  1  0.875000  0.625000  0.750000  1.0
  H  H5  1  0.382647  0.205442  0.418057  1.0
  H  H6  1  0.035410  0.712615  0.418057  1.0
  H  H7  1  0.705442  0.535410  0.918057  1.0
  H  H8  1  0.212615  0.882647  0.918057  1.0
  H  H9  1  0.617353  0.794558  0.581943  1.0
  H  H10  1  0.964590  0.287385  0.581943  1.0
  H  H11  1  0.294558  0.464590  0.081943  1.0
  H  H12  1  0.787385  0.117353  0.081943  1.0
