# generated using pymatgen
data_CuBiO2
_symmetry_space_group_name_H-M   'P 1'
_cell_length_a   3.63533833
_cell_length_b   6.15623091
_cell_length_c   6.69401886
_cell_angle_alpha   116.07077276
_cell_angle_beta   90.00000000
_cell_angle_gamma   90.00000000
_symmetry_Int_Tables_number   1
_chemical_formula_structural   CuBiO2
_chemical_formula_sum   'Cu2 Bi2 O4'
_cell_volume   134.56893077
_cell_formula_units_Z   2
loop_
 _symmetry_equiv_pos_site_id
 _symmetry_equiv_pos_as_xyz
  1  'x, y, z'
loop_
 _atom_site_type_symbol
 _atom_site_label
 _atom_site_symmetry_multiplicity
 _atom_site_fract_x
 _atom_site_fract_y
 _atom_site_fract_z
 _atom_site_occupancy
  Cu  Cu1  1  0.250000  0.972522  0.331617  1.0
  Cu  Cu2  1  0.750000  0.027478  0.668383  1.0
  Bi  Bi3  1  0.250000  0.567858  0.764622  1.0
  Bi  Bi4  1  0.750000  0.432142  0.235378  1.0
  O  O5  1  0.250000  0.639692  0.195857  1.0
  O  O6  1  0.750000  0.700953  0.588767  1.0
  O  O7  1  0.250000  0.299047  0.411233  1.0
  O  O8  1  0.750000  0.360308  0.804143  1.0
