# generated using pymatgen
data_Yb
_symmetry_space_group_name_H-M   'P 1'
_cell_length_a   3.87897334
_cell_length_b   3.87897334
_cell_length_c   9.70452308
_cell_angle_alpha   78.47158537
_cell_angle_beta   101.52841463
_cell_angle_gamma   119.99998156
_symmetry_Int_Tables_number   1
_chemical_formula_structural   Yb
_chemical_formula_sum   Yb3
_cell_volume   123.04243230
_cell_formula_units_Z   3
loop_
 _symmetry_equiv_pos_site_id
 _symmetry_equiv_pos_as_xyz
  1  'x, y, z'
loop_
 _atom_site_type_symbol
 _atom_site_label
 _atom_site_symmetry_multiplicity
 _atom_site_fract_x
 _atom_site_fract_y
 _atom_site_fract_z
 _atom_site_occupancy
  Yb  Yb1  1  0.000000  0.000000  0.000000  1.0
  Yb  Yb2  1  0.777584  0.222414  0.332751  1.0
  Yb  Yb3  1  0.222415  0.777583  0.667249  1.0
