# generated using pymatgen
data_BiAuO2
_symmetry_space_group_name_H-M   'P 1'
_cell_length_a   3.68433000
_cell_length_b   6.70136999
_cell_length_c   6.55056000
_cell_angle_alpha   115.77547668
_cell_angle_beta   90.00000000
_cell_angle_gamma   90.00000000
_symmetry_Int_Tables_number   1
_chemical_formula_structural   BiAuO2
_chemical_formula_sum   'Bi2 Au2 O4'
_cell_volume   145.64200983
_cell_formula_units_Z   2
loop_
 _symmetry_equiv_pos_site_id
 _symmetry_equiv_pos_as_xyz
  1  'x, y, z'
loop_
 _atom_site_type_symbol
 _atom_site_label
 _atom_site_symmetry_multiplicity
 _atom_site_fract_x
 _atom_site_fract_y
 _atom_site_fract_z
 _atom_site_occupancy
  Bi  Bi1  1  0.250000  0.234470  0.936420  1.0
  Bi  Bi2  1  0.750000  0.765530  0.063580  1.0
  Au  Au3  1  0.250000  0.693360  0.527780  1.0
  Au  Au4  1  0.750000  0.306640  0.472220  1.0
  O  O5  1  0.750000  0.188940  0.125950  1.0
  O  O6  1  0.750000  0.407250  0.815780  1.0
  O  O7  1  0.250000  0.592750  0.184220  1.0
  O  O8  1  0.250000  0.811060  0.874050  1.0
