# generated using pymatgen
data_SrAuO2
_symmetry_space_group_name_H-M   'P 1'
_cell_length_a   3.67159829
_cell_length_b   6.13774467
_cell_length_c   6.13774511
_cell_angle_alpha   108.52619548
_cell_angle_beta   90.01813451
_cell_angle_gamma   90.01812849
_symmetry_Int_Tables_number   1
_chemical_formula_structural   SrAuO2
_chemical_formula_sum   'Sr2 Au2 O4'
_cell_volume   131.14835834
_cell_formula_units_Z   2
loop_
 _symmetry_equiv_pos_site_id
 _symmetry_equiv_pos_as_xyz
  1  'x, y, z'
loop_
 _atom_site_type_symbol
 _atom_site_label
 _atom_site_symmetry_multiplicity
 _atom_site_fract_x
 _atom_site_fract_y
 _atom_site_fract_z
 _atom_site_occupancy
  Sr  Sr1  1  0.000000  0.500000  0.000000  1.0
  Sr  Sr2  1  0.000000  0.000000  0.500000  1.0
  Au  Au3  1  0.500000  0.000000  0.000000  1.0
  Au  Au4  1  0.500000  0.500000  0.500000  1.0
  O  O5  1  0.500000  0.292856  0.707144  1.0
  O  O6  1  0.500000  0.707144  0.292856  1.0
  O  O7  1  0.223279  0.248081  0.248081  1.0
  O  O8  1  0.776721  0.751919  0.751919  1.0
