# generated using pymatgen
data_NdSc3
_symmetry_space_group_name_H-M   'P 1'
_cell_length_a   6.83746285
_cell_length_b   6.83746224
_cell_length_c   5.38620353
_cell_angle_alpha   90.00000000
_cell_angle_beta   90.00000000
_cell_angle_gamma   119.99999761
_symmetry_Int_Tables_number   1
_chemical_formula_structural   NdSc3
_chemical_formula_sum   'Nd2 Sc6'
_cell_volume   218.07371546
_cell_formula_units_Z   2
loop_
 _symmetry_equiv_pos_site_id
 _symmetry_equiv_pos_as_xyz
  1  'x, y, z'
loop_
 _atom_site_type_symbol
 _atom_site_label
 _atom_site_symmetry_multiplicity
 _atom_site_fract_x
 _atom_site_fract_y
 _atom_site_fract_z
 _atom_site_occupancy
  Nd  Nd1  1  0.666667  0.333332  0.250000  1.0
  Nd  Nd2  1  0.333334  0.666668  0.749999  1.0
  Sc  Sc3  1  0.837909  0.162091  0.749999  1.0
  Sc  Sc4  1  0.324182  0.162091  0.749999  1.0
  Sc  Sc5  1  0.837908  0.675818  0.749999  1.0
  Sc  Sc6  1  0.162091  0.837911  0.250000  1.0
  Sc  Sc7  1  0.675820  0.837911  0.250000  1.0
  Sc  Sc8  1  0.162091  0.324182  0.250000  1.0
