# generated using pymatgen
data_Al2O3
_symmetry_space_group_name_H-M   'P 1'
_cell_length_a   4.84649067
_cell_length_b   4.84648928
_cell_length_c   9.08588697
_cell_angle_alpha   90.00032933
_cell_angle_beta   89.99979375
_cell_angle_gamma   120.00012737
_symmetry_Int_Tables_number   1
_chemical_formula_structural   Al2O3
_chemical_formula_sum   'Al8 O12'
_cell_volume   184.82130889
_cell_formula_units_Z   4
loop_
 _symmetry_equiv_pos_site_id
 _symmetry_equiv_pos_as_xyz
  1  'x, y, z'
loop_
 _atom_site_type_symbol
 _atom_site_label
 _atom_site_symmetry_multiplicity
 _atom_site_fract_x
 _atom_site_fract_y
 _atom_site_fract_z
 _atom_site_occupancy
  Al  Al1  1  0.333329  0.666669  0.962846  1.0
  Al  Al2  1  0.333320  0.666670  0.250000  1.0
  Al  Al3  1  0.999986  0.999999  0.000000  1.0
  Al  Al4  1  0.999995  0.999999  0.500000  1.0
  Al  Al5  1  0.333328  0.666666  0.537152  1.0
  Al  Al6  1  0.666662  0.333332  0.037154  1.0
  Al  Al7  1  0.666649  0.333327  0.750001  1.0
  Al  Al8  1  0.666665  0.333336  0.462848  1.0
  O  O9  1  0.031828  0.676608  0.111905  1.0
  O  O10  1  0.968145  0.644755  0.611902  1.0
  O  O11  1  0.031845  0.355246  0.388097  1.0
  O  O12  1  0.968136  0.323394  0.888099  1.0
  O  O13  1  0.323381  0.355248  0.111899  1.0
  O  O14  1  0.355234  0.323393  0.611903  1.0
  O  O15  1  0.323392  0.968156  0.388097  1.0
  O  O16  1  0.355225  0.031840  0.888097  1.0
  O  O17  1  0.644754  0.676607  0.388097  1.0
  O  O18  1  0.676589  0.644754  0.888095  1.0
  O  O19  1  0.644740  0.968153  0.111905  1.0
  O  O20  1  0.676597  0.031847  0.611903  1.0
