# generated using pymatgen
data_ScTlO2
_symmetry_space_group_name_H-M   'P 1'
_cell_length_a   3.26846843
_cell_length_b   6.74933728
_cell_length_c   3.26846850
_cell_angle_alpha   104.01243922
_cell_angle_beta   60.00000085
_cell_angle_gamma   104.01243913
_symmetry_Int_Tables_number   1
_chemical_formula_structural   ScTlO2
_chemical_formula_sum   'Sc1 Tl1 O2'
_cell_volume   59.95226197
_cell_formula_units_Z   1
loop_
 _symmetry_equiv_pos_site_id
 _symmetry_equiv_pos_as_xyz
  1  'x, y, z'
loop_
 _atom_site_type_symbol
 _atom_site_label
 _atom_site_symmetry_multiplicity
 _atom_site_fract_x
 _atom_site_fract_y
 _atom_site_fract_z
 _atom_site_occupancy
  Sc  Sc1  1  0.500000  0.500000  0.500000  1.0
  Tl  Tl2  1  0.000000  0.000000  0.000000  1.0
  O  O3  1  0.221219  0.663655  0.221219  1.0
  O  O4  1  0.778781  0.336345  0.778781  1.0
