# generated using pymatgen
data_Nd2Mg
_symmetry_space_group_name_H-M   'P 1'
_cell_length_a   3.82985879
_cell_length_b   8.98706376
_cell_length_c   5.64520748
_cell_angle_alpha   90.00000000
_cell_angle_beta   90.00000000
_cell_angle_gamma   77.69731015
_symmetry_Int_Tables_number   1
_chemical_formula_structural   Nd2Mg
_chemical_formula_sum   'Nd4 Mg2'
_cell_volume   189.84137406
_cell_formula_units_Z   2
loop_
 _symmetry_equiv_pos_site_id
 _symmetry_equiv_pos_as_xyz
  1  'x, y, z'
loop_
 _atom_site_type_symbol
 _atom_site_label
 _atom_site_symmetry_multiplicity
 _atom_site_fract_x
 _atom_site_fract_y
 _atom_site_fract_z
 _atom_site_occupancy
  Nd  Nd1  1  0.976648  0.046704  0.000000  1.0
  Nd  Nd2  1  0.661218  0.677565  0.000000  1.0
  Nd  Nd3  1  0.801131  0.397741  0.500000  1.0
  Nd  Nd4  1  0.116559  0.766881  0.500000  1.0
  Mg  Mg5  1  0.320628  0.358741  0.000000  1.0
  Mg  Mg6  1  0.457148  0.085703  0.500000  1.0
