# generated using pymatgen
data_SmLu3
_symmetry_space_group_name_H-M   'P 1'
_cell_length_a   7.12872151
_cell_length_b   7.12872199
_cell_length_c   5.57325332
_cell_angle_alpha   90.00000000
_cell_angle_beta   90.00000000
_cell_angle_gamma   119.99999309
_symmetry_Int_Tables_number   1
_chemical_formula_structural   SmLu3
_chemical_formula_sum   'Sm2 Lu6'
_cell_volume   245.28035860
_cell_formula_units_Z   2
loop_
 _symmetry_equiv_pos_site_id
 _symmetry_equiv_pos_as_xyz
  1  'x, y, z'
loop_
 _atom_site_type_symbol
 _atom_site_label
 _atom_site_symmetry_multiplicity
 _atom_site_fract_x
 _atom_site_fract_y
 _atom_site_fract_z
 _atom_site_occupancy
  Sm  Sm1  1  0.333334  0.666667  0.750001  1.0
  Sm  Sm2  1  0.666667  0.333334  0.250001  1.0
  Lu  Lu3  1  0.164866  0.329732  0.250001  1.0
  Lu  Lu4  1  0.670267  0.835134  0.250001  1.0
  Lu  Lu5  1  0.164867  0.835134  0.250001  1.0
  Lu  Lu6  1  0.835134  0.670267  0.750001  1.0
  Lu  Lu7  1  0.329733  0.164867  0.750001  1.0
  Lu  Lu8  1  0.835134  0.164867  0.750001  1.0
