# generated using pymatgen
data_RbCaCl3
_symmetry_space_group_name_H-M   'P 1'
_cell_length_a   5.42425595
_cell_length_b   5.42589024
_cell_length_c   5.42600600
_cell_angle_alpha   90.05201710
_cell_angle_beta   90.12973344
_cell_angle_gamma   90.00718117
_symmetry_Int_Tables_number   1
_chemical_formula_structural   RbCaCl3
_chemical_formula_sum   'Rb1 Ca1 Cl3'
_cell_volume   159.69457102
_cell_formula_units_Z   1
loop_
 _symmetry_equiv_pos_site_id
 _symmetry_equiv_pos_as_xyz
  1  'x, y, z'
loop_
 _atom_site_type_symbol
 _atom_site_label
 _atom_site_symmetry_multiplicity
 _atom_site_fract_x
 _atom_site_fract_y
 _atom_site_fract_z
 _atom_site_occupancy
  Rb  Rb1  1  0.996572  0.998160  0.996987  1.0
  Ca  Ca2  1  0.485299  0.499049  0.495521  1.0
  Cl  Cl3  1  0.484499  0.999480  0.494637  1.0
  Cl  Cl4  1  0.985503  0.505619  0.506483  1.0
  Cl  Cl5  1  0.488131  0.497692  0.996371  1.0
