# generated using pymatgen
data_RbAgCl3
_symmetry_space_group_name_H-M   'P 1'
_cell_length_a   5.16547509
_cell_length_b   5.16709633
_cell_length_c   5.16928331
_cell_angle_alpha   90.06324242
_cell_angle_beta   89.97804692
_cell_angle_gamma   90.04440996
_symmetry_Int_Tables_number   1
_chemical_formula_structural   RbAgCl3
_chemical_formula_sum   'Rb1 Ag1 Cl3'
_cell_volume   137.97065876
_cell_formula_units_Z   1
loop_
 _symmetry_equiv_pos_site_id
 _symmetry_equiv_pos_as_xyz
  1  'x, y, z'
loop_
 _atom_site_type_symbol
 _atom_site_label
 _atom_site_symmetry_multiplicity
 _atom_site_fract_x
 _atom_site_fract_y
 _atom_site_fract_z
 _atom_site_occupancy
  Rb  Rb1  1  0.999875  0.000068  0.994995  1.0
  Ag  Ag2  1  0.499659  0.496664  0.485566  1.0
  Cl  Cl3  1  0.999692  0.494505  0.485547  1.0
  Cl  Cl4  1  0.502383  0.502025  0.985590  1.0
  Cl  Cl5  1  0.498389  0.996740  0.488303  1.0
