# generated using pymatgen
data_Sc2O3
_symmetry_space_group_name_H-M   'P 1'
_cell_length_a   5.37073564
_cell_length_b   5.71036925
_cell_length_c   5.37073549
_cell_angle_alpha   118.05128692
_cell_angle_beta   59.99999909
_cell_angle_gamma   118.05128392
_symmetry_Int_Tables_number   1
_chemical_formula_structural   Sc2O3
_chemical_formula_sum   'Sc4 O6'
_cell_volume   119.78421685
_cell_formula_units_Z   2
loop_
 _symmetry_equiv_pos_site_id
 _symmetry_equiv_pos_as_xyz
  1  'x, y, z'
loop_
 _atom_site_type_symbol
 _atom_site_label
 _atom_site_symmetry_multiplicity
 _atom_site_fract_x
 _atom_site_fract_y
 _atom_site_fract_z
 _atom_site_occupancy
  Sc  Sc1  1  0.144292  0.432875  0.144292  1.0
  Sc  Sc2  1  0.355708  0.067125  0.355708  1.0
  Sc  Sc3  1  0.644292  0.932875  0.644292  1.0
  Sc  Sc4  1  0.855708  0.567125  0.855708  1.0
  O  O5  1  0.250000  0.750000  0.549913  1.0
  O  O6  1  0.049913  0.250000  0.750000  1.0
  O  O7  1  0.450087  0.250000  0.049913  1.0
  O  O8  1  0.549913  0.750000  0.950087  1.0
  O  O9  1  0.950087  0.750000  0.250000  1.0
  O  O10  1  0.750000  0.250000  0.450087  1.0
