# generated using pymatgen
data_Re3Ru
_symmetry_space_group_name_H-M   'P 1'
_cell_length_a   5.55285229
_cell_length_b   5.55358704
_cell_length_c   4.42644708
_cell_angle_alpha   90.00987775
_cell_angle_beta   89.99470932
_cell_angle_gamma   120.00635349
_symmetry_Int_Tables_number   1
_chemical_formula_structural   Re3Ru
_chemical_formula_sum   'Re6 Ru2'
_cell_volume   118.20825264
_cell_formula_units_Z   2
loop_
 _symmetry_equiv_pos_site_id
 _symmetry_equiv_pos_as_xyz
  1  'x, y, z'
loop_
 _atom_site_type_symbol
 _atom_site_label
 _atom_site_symmetry_multiplicity
 _atom_site_fract_x
 _atom_site_fract_y
 _atom_site_fract_z
 _atom_site_occupancy
  Re  Re1  1  0.164319  0.328649  0.249977  1.0
  Re  Re2  1  0.671365  0.835690  0.249982  1.0
  Re  Re3  1  0.164351  0.835655  0.250033  1.0
  Re  Re4  1  0.835636  0.671234  0.750020  1.0
  Re  Re5  1  0.328729  0.164361  0.750015  1.0
  Re  Re6  1  0.835622  0.164417  0.749968  1.0
  Ru  Ru7  1  0.333293  0.666668  0.749993  1.0
  Ru  Ru8  1  0.666688  0.333331  0.250004  1.0
