# generated using pymatgen
data_VOF2
_symmetry_space_group_name_H-M   'P 1'
_cell_length_a   5.11502366
_cell_length_b   5.30085078
_cell_length_c   5.11502366
_cell_angle_alpha   85.94724700
_cell_angle_beta   117.70181879
_cell_angle_gamma   63.53216295
_symmetry_Int_Tables_number   1
_chemical_formula_structural   VOF2
_chemical_formula_sum   'V2 O2 F4'
_cell_volume   102.94491202
_cell_formula_units_Z   2
loop_
 _symmetry_equiv_pos_site_id
 _symmetry_equiv_pos_as_xyz
  1  'x, y, z'
loop_
 _atom_site_type_symbol
 _atom_site_label
 _atom_site_symmetry_multiplicity
 _atom_site_fract_x
 _atom_site_fract_y
 _atom_site_fract_z
 _atom_site_occupancy
  V  V1  1  0.000000  0.000000  0.000000  1.0
  V  V2  1  0.000000  0.500000  0.500000  1.0
  O  O3  1  0.079603  0.250000  0.829603  1.0
  O  O4  1  0.920397  0.750000  0.170397  1.0
  F  F5  1  0.499589  0.247080  0.647547  1.0
  F  F6  1  0.894627  0.252920  0.246669  1.0
  F  F7  1  0.105373  0.747080  0.753331  1.0
  F  F8  1  0.500411  0.752920  0.352453  1.0
