# generated using pymatgen
data_Nd3Zr
_symmetry_space_group_name_H-M   'P 1'
_cell_length_a   7.14648266
_cell_length_b   7.14648243
_cell_length_c   5.76478645
_cell_angle_alpha   90.00000000
_cell_angle_beta   90.00000000
_cell_angle_gamma   119.99999641
_symmetry_Int_Tables_number   1
_chemical_formula_structural   Nd3Zr
_chemical_formula_sum   'Nd6 Zr2'
_cell_volume   254.97555512
_cell_formula_units_Z   2
loop_
 _symmetry_equiv_pos_site_id
 _symmetry_equiv_pos_as_xyz
  1  'x, y, z'
loop_
 _atom_site_type_symbol
 _atom_site_label
 _atom_site_symmetry_multiplicity
 _atom_site_fract_x
 _atom_site_fract_y
 _atom_site_fract_z
 _atom_site_occupancy
  Nd  Nd1  1  0.171583  0.343166  0.250000  1.0
  Nd  Nd2  1  0.656834  0.828416  0.250000  1.0
  Nd  Nd3  1  0.171583  0.828416  0.250000  1.0
  Nd  Nd4  1  0.828416  0.656832  0.750001  1.0
  Nd  Nd5  1  0.343167  0.171585  0.750001  1.0
  Nd  Nd6  1  0.828417  0.171585  0.750001  1.0
  Zr  Zr7  1  0.333333  0.666667  0.750001  1.0
  Zr  Zr8  1  0.666667  0.333333  0.250000  1.0
