# generated using pymatgen
data_CsInBr3
_symmetry_space_group_name_H-M   'P 1'
_cell_length_a   5.77292148
_cell_length_b   5.77440922
_cell_length_c   5.77509715
_cell_angle_alpha   89.92873557
_cell_angle_beta   89.97364242
_cell_angle_gamma   89.98197136
_symmetry_Int_Tables_number   1
_chemical_formula_structural   CsInBr3
_chemical_formula_sum   'Cs1 In1 Br3'
_cell_volume   192.51390338
_cell_formula_units_Z   1
loop_
 _symmetry_equiv_pos_site_id
 _symmetry_equiv_pos_as_xyz
  1  'x, y, z'
loop_
 _atom_site_type_symbol
 _atom_site_label
 _atom_site_symmetry_multiplicity
 _atom_site_fract_x
 _atom_site_fract_y
 _atom_site_fract_z
 _atom_site_occupancy
  Cs  Cs1  1  0.000356  0.005730  0.000507  1.0
  In  In2  1  0.500769  0.514602  0.504246  1.0
  Br  Br3  1  0.000198  0.513664  0.504296  1.0
  Br  Br4  1  0.497380  0.014031  0.497991  1.0
  Br  Br5  1  0.501298  0.511973  0.002961  1.0
