# generated using pymatgen
data_Ni3Au
_symmetry_space_group_name_H-M   'P 1'
_cell_length_a   5.23849312
_cell_length_b   5.23849306
_cell_length_c   4.25418747
_cell_angle_alpha   90.00000000
_cell_angle_beta   90.00000000
_cell_angle_gamma   120.00000696
_symmetry_Int_Tables_number   1
_chemical_formula_structural   Ni3Au
_chemical_formula_sum   'Ni6 Au2'
_cell_volume   101.10205336
_cell_formula_units_Z   2
loop_
 _symmetry_equiv_pos_site_id
 _symmetry_equiv_pos_as_xyz
  1  'x, y, z'
loop_
 _atom_site_type_symbol
 _atom_site_label
 _atom_site_symmetry_multiplicity
 _atom_site_fract_x
 _atom_site_fract_y
 _atom_site_fract_z
 _atom_site_occupancy
  Ni  Ni1  1  0.158754  0.317507  0.250000  1.0
  Ni  Ni2  1  0.682492  0.841247  0.250000  1.0
  Ni  Ni3  1  0.158753  0.841247  0.250000  1.0
  Ni  Ni4  1  0.841247  0.682493  0.749999  1.0
  Ni  Ni5  1  0.317506  0.158753  0.749999  1.0
  Ni  Ni6  1  0.841246  0.158753  0.749999  1.0
  Au  Au7  1  0.333334  0.666667  0.749999  1.0
  Au  Au8  1  0.666666  0.333331  0.250000  1.0
