# generated using pymatgen
data_Li2Mg
_symmetry_space_group_name_H-M   'P 1'
_cell_length_a   3.18709582
_cell_length_b   5.94521152
_cell_length_c   7.01742473
_cell_angle_alpha   74.17964398
_cell_angle_beta   90.00000000
_cell_angle_gamma   105.54760278
_symmetry_Int_Tables_number   1
_chemical_formula_structural   Li2Mg
_chemical_formula_sum   'Li4 Mg2'
_cell_volume   122.86452250
_cell_formula_units_Z   2
loop_
 _symmetry_equiv_pos_site_id
 _symmetry_equiv_pos_as_xyz
  1  'x, y, z'
loop_
 _atom_site_type_symbol
 _atom_site_label
 _atom_site_symmetry_multiplicity
 _atom_site_fract_x
 _atom_site_fract_y
 _atom_site_fract_z
 _atom_site_occupancy
  Li  Li1  1  0.010771  0.021540  0.987729  1.0
  Li  Li2  1  0.711177  0.422356  0.078493  1.0
  Li  Li3  1  0.344378  0.688756  0.310395  1.0
  Li  Li4  1  0.044786  0.089572  0.401160  1.0
  Mg  Mg5  1  0.673542  0.347085  0.642473  1.0
  Mg  Mg6  1  0.382013  0.764026  0.746416  1.0
