# generated using pymatgen
data_KAgCl3
_symmetry_space_group_name_H-M   'P 1'
_cell_length_a   5.13227430
_cell_length_b   5.13521300
_cell_length_c   5.14001364
_cell_angle_alpha   90.33329226
_cell_angle_beta   90.06371640
_cell_angle_gamma   90.14264943
_symmetry_Int_Tables_number   1
_chemical_formula_structural   KAgCl3
_chemical_formula_sum   'K1 Ag1 Cl3'
_cell_volume   135.46391528
_cell_formula_units_Z   1
loop_
 _symmetry_equiv_pos_site_id
 _symmetry_equiv_pos_as_xyz
  1  'x, y, z'
loop_
 _atom_site_type_symbol
 _atom_site_label
 _atom_site_symmetry_multiplicity
 _atom_site_fract_x
 _atom_site_fract_y
 _atom_site_fract_z
 _atom_site_occupancy
  K  K1  1  0.999137  0.999264  0.997811  1.0
  Ag  Ag2  1  0.500001  0.497575  0.486040  1.0
  Cl  Cl3  1  0.000054  0.493297  0.484120  1.0
  Cl  Cl4  1  0.503167  0.502256  0.985872  1.0
  Cl  Cl5  1  0.497640  0.997604  0.486159  1.0
