# generated using pymatgen
data_LiVF4
_symmetry_space_group_name_H-M   'P 1'
_cell_length_a   5.62015114
_cell_length_b   4.75913386
_cell_length_c   5.69981748
_cell_angle_alpha   90.00000000
_cell_angle_beta   113.80088053
_cell_angle_gamma   90.00000000
_symmetry_Int_Tables_number   1
_chemical_formula_structural   LiVF4
_chemical_formula_sum   'Li2 V2 F8'
_cell_volume   139.48768639
_cell_formula_units_Z   2
loop_
 _symmetry_equiv_pos_site_id
 _symmetry_equiv_pos_as_xyz
  1  'x, y, z'
loop_
 _atom_site_type_symbol
 _atom_site_label
 _atom_site_symmetry_multiplicity
 _atom_site_fract_x
 _atom_site_fract_y
 _atom_site_fract_z
 _atom_site_occupancy
  Li  Li1  1  0.500000  0.000000  0.500000  1.0
  Li  Li2  1  0.500000  0.500000  0.000000  1.0
  V  V3  1  0.000000  0.500000  0.500000  1.0
  V  V4  1  0.000000  0.000000  0.000000  1.0
  F  F5  1  0.141818  0.291803  0.844287  1.0
  F  F6  1  0.141818  0.208197  0.344287  1.0
  F  F7  1  0.331075  0.685975  0.639580  1.0
  F  F8  1  0.331075  0.814025  0.139580  1.0
  F  F9  1  0.668925  0.185975  0.860420  1.0
  F  F10  1  0.668925  0.314025  0.360420  1.0
  F  F11  1  0.858182  0.791803  0.655713  1.0
  F  F12  1  0.858182  0.708197  0.155713  1.0
