# generated using pymatgen
data_Sc3Cd
_symmetry_space_group_name_H-M   'P 1'
_cell_length_a   6.40182938
_cell_length_b   6.40182891
_cell_length_c   5.25262323
_cell_angle_alpha   90.00000000
_cell_angle_beta   90.00000000
_cell_angle_gamma   119.99999705
_symmetry_Int_Tables_number   1
_chemical_formula_structural   Sc3Cd
_chemical_formula_sum   'Sc6 Cd2'
_cell_volume   186.42967963
_cell_formula_units_Z   2
loop_
 _symmetry_equiv_pos_site_id
 _symmetry_equiv_pos_as_xyz
  1  'x, y, z'
loop_
 _atom_site_type_symbol
 _atom_site_label
 _atom_site_symmetry_multiplicity
 _atom_site_fract_x
 _atom_site_fract_y
 _atom_site_fract_z
 _atom_site_occupancy
  Sc  Sc1  1  0.169017  0.338036  0.249999  1.0
  Sc  Sc2  1  0.661963  0.830983  0.249999  1.0
  Sc  Sc3  1  0.169017  0.830983  0.249999  1.0
  Sc  Sc4  1  0.830983  0.661966  0.750000  1.0
  Sc  Sc5  1  0.338035  0.169016  0.750000  1.0
  Sc  Sc6  1  0.830983  0.169016  0.750000  1.0
  Cd  Cd7  1  0.333334  0.666668  0.750000  1.0
  Cd  Cd8  1  0.666667  0.333333  0.249999  1.0
