# generated using pymatgen
data_CrFeCoNi
_symmetry_space_group_name_H-M   'P 1'
_cell_length_a   5.04023053
_cell_length_b   4.37046988
_cell_length_c   4.01256633
_cell_angle_alpha   90.00451651
_cell_angle_beta   89.99527356
_cell_angle_gamma   89.63065075
_symmetry_Int_Tables_number   1
_chemical_formula_structural   CrFeCoNi
_chemical_formula_sum   'Cr2 Fe2 Co2 Ni2'
_cell_volume   88.38767909
_cell_formula_units_Z   2
loop_
 _symmetry_equiv_pos_site_id
 _symmetry_equiv_pos_as_xyz
  1  'x, y, z'
loop_
 _atom_site_type_symbol
 _atom_site_label
 _atom_site_symmetry_multiplicity
 _atom_site_fract_x
 _atom_site_fract_y
 _atom_site_fract_z
 _atom_site_occupancy
  Cr  Cr1  1  0.626276  0.302737  0.714967  1.0
  Cr  Cr2  1  0.123875  0.629626  0.215213  1.0
  Fe  Fe3  1  0.381994  0.136183  0.215153  1.0
  Fe  Fe4  1  0.376714  0.793510  0.714776  1.0
  Co  Co5  1  0.630847  0.637430  0.214926  1.0
  Co  Co6  1  0.879947  0.130749  0.215013  1.0
  Ni  Ni7  1  0.874211  0.802215  0.715055  1.0
  Ni  Ni8  1  0.124050  0.296887  0.715264  1.0
