# generated using pymatgen
data_SrMg6Ga
_symmetry_space_group_name_H-M   'P 1'
_cell_length_a   7.41642966
_cell_length_b   6.16993815
_cell_length_c   4.98268600
_cell_angle_alpha   90.00000000
_cell_angle_beta   90.00000000
_cell_angle_gamma   114.58006114
_symmetry_Int_Tables_number   1
_chemical_formula_structural   SrMg6Ga
_chemical_formula_sum   'Sr1 Mg6 Ga1'
_cell_volume   207.34093358
_cell_formula_units_Z   1
loop_
 _symmetry_equiv_pos_site_id
 _symmetry_equiv_pos_as_xyz
  1  'x, y, z'
loop_
 _atom_site_type_symbol
 _atom_site_label
 _atom_site_symmetry_multiplicity
 _atom_site_fract_x
 _atom_site_fract_y
 _atom_site_fract_z
 _atom_site_occupancy
  Sr  Sr1  1  0.100764  0.300382  0.250000  1.0
  Mg  Mg2  1  0.629073  0.322519  0.250000  1.0
  Mg  Mg3  1  0.629073  0.806553  0.250000  1.0
  Mg  Mg4  1  0.353432  0.172428  0.750000  1.0
  Mg  Mg5  1  0.353432  0.681005  0.750000  1.0
  Mg  Mg6  1  0.761970  0.130985  0.750000  1.0
  Mg  Mg7  1  0.907653  0.703827  0.750000  1.0
  Ga  Ga8  1  0.264604  0.882301  0.250000  1.0
