# generated using pymatgen
data_Mg6NbC
_symmetry_space_group_name_H-M   'P 1'
_cell_length_a   6.24738117
_cell_length_b   6.24738046
_cell_length_c   4.41119024
_cell_angle_alpha   90.00000000
_cell_angle_beta   90.00000000
_cell_angle_gamma   102.56077236
_symmetry_Int_Tables_number   1
_chemical_formula_structural   Mg6NbC
_chemical_formula_sum   'Mg6 Nb1 C1'
_cell_volume   168.04704533
_cell_formula_units_Z   1
loop_
 _symmetry_equiv_pos_site_id
 _symmetry_equiv_pos_as_xyz
  1  'x, y, z'
loop_
 _atom_site_type_symbol
 _atom_site_label
 _atom_site_symmetry_multiplicity
 _atom_site_fract_x
 _atom_site_fract_y
 _atom_site_fract_z
 _atom_site_occupancy
  Mg  Mg1  1  0.209779  0.903447  0.250000  1.0
  Mg  Mg2  1  0.596553  0.290221  0.250000  1.0
  Mg  Mg3  1  0.704692  0.795308  0.250000  1.0
  Mg  Mg4  1  0.420797  0.621523  0.750000  1.0
  Mg  Mg5  1  0.878477  0.079203  0.750000  1.0
  Mg  Mg6  1  0.916892  0.583108  0.750000  1.0
  Nb  Nb7  1  0.129362  0.370638  0.250000  1.0
  C  C8  1  0.143449  0.356551  0.750000  1.0
