# generated using pymatgen
data_BaMg6C
_symmetry_space_group_name_H-M   'P 1'
_cell_length_a   10.61066622
_cell_length_b   5.75708727
_cell_length_c   3.67250875
_cell_angle_alpha   90.00000000
_cell_angle_beta   90.00000000
_cell_angle_gamma   105.74091656
_symmetry_Int_Tables_number   1
_chemical_formula_structural   BaMg6C
_chemical_formula_sum   'Ba1 Mg6 C1'
_cell_volume   215.92764943
_cell_formula_units_Z   1
loop_
 _symmetry_equiv_pos_site_id
 _symmetry_equiv_pos_as_xyz
  1  'x, y, z'
loop_
 _atom_site_type_symbol
 _atom_site_label
 _atom_site_symmetry_multiplicity
 _atom_site_fract_x
 _atom_site_fract_y
 _atom_site_fract_z
 _atom_site_occupancy
  Ba  Ba1  1  0.074055  0.287027  0.250000  1.0
  Mg  Mg2  1  0.586959  0.291910  0.250000  1.0
  Mg  Mg3  1  0.586959  0.795048  0.250000  1.0
  Mg  Mg4  1  0.361781  0.161457  0.750000  1.0
  Mg  Mg5  1  0.361781  0.700325  0.750000  1.0
  Mg  Mg6  1  0.780218  0.140110  0.750000  1.0
  Mg  Mg7  1  0.837473  0.668736  0.750000  1.0
  C  C8  1  0.410774  0.955387  0.250000  1.0
