# generated using pymatgen
data_VPt
_symmetry_space_group_name_H-M   'P 1'
_cell_length_a   4.40626996
_cell_length_b   2.70874577
_cell_length_c   4.80971219
_cell_angle_alpha   90.00000000
_cell_angle_beta   90.00000000
_cell_angle_gamma   90.00000000
_symmetry_Int_Tables_number   1
_chemical_formula_structural   VPt
_chemical_formula_sum   'V2 Pt2'
_cell_volume   57.40615206
_cell_formula_units_Z   2
loop_
 _symmetry_equiv_pos_site_id
 _symmetry_equiv_pos_as_xyz
  1  'x, y, z'
loop_
 _atom_site_type_symbol
 _atom_site_label
 _atom_site_symmetry_multiplicity
 _atom_site_fract_x
 _atom_site_fract_y
 _atom_site_fract_z
 _atom_site_occupancy
  V  V1  1  0.250000  0.000000  0.170633  1.0
  V  V2  1  0.750000  0.000000  0.829367  1.0
  Pt  Pt3  1  0.250000  0.500000  0.681526  1.0
  Pt  Pt4  1  0.750000  0.500000  0.318474  1.0
