# generated using pymatgen
data_ZrCd
_symmetry_space_group_name_H-M   'P 1'
_cell_length_a   3.10589453
_cell_length_b   3.10589453
_cell_length_c   9.28968580
_cell_angle_alpha   90.00000000
_cell_angle_beta   90.00000000
_cell_angle_gamma   90.00000000
_symmetry_Int_Tables_number   1
_chemical_formula_structural   ZrCd
_chemical_formula_sum   'Zr2 Cd2'
_cell_volume   89.61370497
_cell_formula_units_Z   2
loop_
 _symmetry_equiv_pos_site_id
 _symmetry_equiv_pos_as_xyz
  1  'x, y, z'
loop_
 _atom_site_type_symbol
 _atom_site_label
 _atom_site_symmetry_multiplicity
 _atom_site_fract_x
 _atom_site_fract_y
 _atom_site_fract_z
 _atom_site_occupancy
  Zr  Zr1  1  0.750000  0.750000  0.877397  1.0
  Zr  Zr2  1  0.250000  0.250000  0.122603  1.0
  Cd  Cd3  1  0.750000  0.750000  0.377730  1.0
  Cd  Cd4  1  0.250000  0.250000  0.622270  1.0
