# generated using pymatgen
data_Y2AlNi2
_symmetry_space_group_name_H-M   'P 1'
_cell_length_a   8.28935007
_cell_length_b   5.36468798
_cell_length_c   5.36468771
_cell_angle_alpha   44.95428305
_cell_angle_beta   39.41344985
_cell_angle_gamma   39.41344658
_symmetry_Int_Tables_number   1
_chemical_formula_structural   Y2AlNi2
_chemical_formula_sum   'Y2 Al1 Ni2'
_cell_volume   92.46631057
_cell_formula_units_Z   1
loop_
 _symmetry_equiv_pos_site_id
 _symmetry_equiv_pos_as_xyz
  1  'x, y, z'
loop_
 _atom_site_type_symbol
 _atom_site_label
 _atom_site_symmetry_multiplicity
 _atom_site_fract_x
 _atom_site_fract_y
 _atom_site_fract_z
 _atom_site_occupancy
  Y  Y1  1  0.293465  0.500000  0.500000  1.0
  Y  Y2  1  0.706535  0.500000  0.500000  1.0
  Al  Al3  1  0.000000  0.000000  0.000000  1.0
  Ni  Ni4  1  0.723640  0.776360  0.776360  1.0
  Ni  Ni5  1  0.276360  0.223640  0.223640  1.0
