# generated using pymatgen
data_Rb2ZnF4
_symmetry_space_group_name_H-M   'P 1'
_cell_length_a   4.22117496
_cell_length_b   4.22117496
_cell_length_c   7.54148992
_cell_angle_alpha   106.25205589
_cell_angle_beta   106.25205589
_cell_angle_gamma   90.00000000
_symmetry_Int_Tables_number   1
_chemical_formula_structural   Rb2ZnF4
_chemical_formula_sum   'Rb2 Zn1 F4'
_cell_volume   123.40379874
_cell_formula_units_Z   1
loop_
 _symmetry_equiv_pos_site_id
 _symmetry_equiv_pos_as_xyz
  1  'x, y, z'
loop_
 _atom_site_type_symbol
 _atom_site_label
 _atom_site_symmetry_multiplicity
 _atom_site_fract_x
 _atom_site_fract_y
 _atom_site_fract_z
 _atom_site_occupancy
  Rb  Rb1  1  0.354803  0.354803  0.709606  1.0
  Rb  Rb2  1  0.645197  0.645197  0.290394  1.0
  Zn  Zn3  1  0.000000  0.000000  0.000000  1.0
  F  F4  1  0.147178  0.147178  0.294356  1.0
  F  F5  1  0.852822  0.852822  0.705644  1.0
  F  F6  1  0.000000  0.500000  0.000000  1.0
  F  F7  1  0.500000  0.000000  0.000000  1.0
