# generated using pymatgen
data_Mn(NbS2)2
_symmetry_space_group_name_H-M   'P 1'
_cell_length_a   3.28912804
_cell_length_b   3.28912804
_cell_length_c   13.76900853
_cell_angle_alpha   90.00000000
_cell_angle_beta   90.00000000
_cell_angle_gamma   119.99999846
_symmetry_Int_Tables_number   1
_chemical_formula_structural   Mn(NbS2)2
_chemical_formula_sum   'Mn1 Nb2 S4'
_cell_volume   129.00153193
_cell_formula_units_Z   1
loop_
 _symmetry_equiv_pos_site_id
 _symmetry_equiv_pos_as_xyz
  1  'x, y, z'
loop_
 _atom_site_type_symbol
 _atom_site_label
 _atom_site_symmetry_multiplicity
 _atom_site_fract_x
 _atom_site_fract_y
 _atom_site_fract_z
 _atom_site_occupancy
  Mn  Mn1  1  0.000000  0.000000  0.000000  1.0
  Nb  Nb2  1  0.666667  0.333333  0.724548  1.0
  Nb  Nb3  1  0.333333  0.666667  0.275452  1.0
  S  S4  1  0.666667  0.333333  0.901167  1.0
  S  S5  1  0.333333  0.666667  0.098833  1.0
  S  S6  1  0.666667  0.333333  0.386252  1.0
  S  S7  1  0.333333  0.666667  0.613748  1.0
