# generated using pymatgen
data_NpGa5Co
_symmetry_space_group_name_H-M   'P 1'
_cell_length_a   4.21821512
_cell_length_b   4.21821512
_cell_length_c   6.69053078
_cell_angle_alpha   90.00000000
_cell_angle_beta   90.00000000
_cell_angle_gamma   90.00000000
_symmetry_Int_Tables_number   1
_chemical_formula_structural   NpGa5Co
_chemical_formula_sum   'Np1 Ga5 Co1'
_cell_volume   119.04688091
_cell_formula_units_Z   1
loop_
 _symmetry_equiv_pos_site_id
 _symmetry_equiv_pos_as_xyz
  1  'x, y, z'
loop_
 _atom_site_type_symbol
 _atom_site_label
 _atom_site_symmetry_multiplicity
 _atom_site_fract_x
 _atom_site_fract_y
 _atom_site_fract_z
 _atom_site_occupancy
  Np  Np1  1  0.000000  0.000000  0.000000  1.0
  Ga  Ga2  1  0.000000  0.500000  0.305148  1.0
  Ga  Ga3  1  0.000000  0.500000  0.694852  1.0
  Ga  Ga4  1  0.500000  0.000000  0.305148  1.0
  Ga  Ga5  1  0.500000  0.000000  0.694852  1.0
  Ga  Ga6  1  0.500000  0.500000  0.000000  1.0
  Co  Co7  1  0.000000  0.000000  0.500000  1.0
