# generated using pymatgen
data_In2AgSe4
_symmetry_space_group_name_H-M   'P 1'
_cell_length_a   5.97482531
_cell_length_b   5.97482531
_cell_length_c   7.20465651
_cell_angle_alpha   114.49729328
_cell_angle_beta   114.49729328
_cell_angle_gamma   90.00000000
_symmetry_Int_Tables_number   1
_chemical_formula_structural   In2AgSe4
_chemical_formula_sum   'In2 Ag1 Se4'
_cell_volume   208.33333306
_cell_formula_units_Z   1
loop_
 _symmetry_equiv_pos_site_id
 _symmetry_equiv_pos_as_xyz
  1  'x, y, z'
loop_
 _atom_site_type_symbol
 _atom_site_label
 _atom_site_symmetry_multiplicity
 _atom_site_fract_x
 _atom_site_fract_y
 _atom_site_fract_z
 _atom_site_occupancy
  In  In1  1  0.250000  0.750000  0.500000  1.0
  In  In2  1  0.000000  0.000000  0.000000  1.0
  Ag  Ag3  1  0.500000  0.500000  0.000000  1.0
  Se  Se4  1  0.403559  0.365733  0.269248  1.0
  Se  Se5  1  0.865689  0.903515  0.269248  1.0
  Se  Se6  1  0.096485  0.596441  0.730752  1.0
  Se  Se7  1  0.634267  0.134311  0.730752  1.0
