# generated using pymatgen
data_Na2Ti2As2O
_symmetry_space_group_name_H-M   'P 1'
_cell_length_a   4.06976930
_cell_length_b   4.06976930
_cell_length_c   8.25643762
_cell_angle_alpha   104.26815334
_cell_angle_beta   104.26815334
_cell_angle_gamma   90.00000000
_symmetry_Int_Tables_number   1
_chemical_formula_structural   Na2Ti2As2O
_chemical_formula_sum   'Na2 Ti2 As2 O1'
_cell_volume   128.17601706
_cell_formula_units_Z   1
loop_
 _symmetry_equiv_pos_site_id
 _symmetry_equiv_pos_as_xyz
  1  'x, y, z'
loop_
 _atom_site_type_symbol
 _atom_site_label
 _atom_site_symmetry_multiplicity
 _atom_site_fract_x
 _atom_site_fract_y
 _atom_site_fract_z
 _atom_site_occupancy
  Na  Na1  1  0.181965  0.181965  0.363930  1.0
  Na  Na2  1  0.818035  0.818035  0.636070  1.0
  Ti  Ti3  1  0.000000  0.500000  0.000000  1.0
  Ti  Ti4  1  0.500000  0.000000  0.000000  1.0
  As  As5  1  0.382538  0.382538  0.765076  1.0
  As  As6  1  0.617462  0.617462  0.234924  1.0
  O  O7  1  0.000000  0.000000  0.000000  1.0
