# generated using pymatgen
data_SiSbPt5
_symmetry_space_group_name_H-M   'P 1'
_cell_length_a   3.99637734
_cell_length_b   3.99637734
_cell_length_c   7.27309263
_cell_angle_alpha   90.00000000
_cell_angle_beta   90.00000000
_cell_angle_gamma   90.00000000
_symmetry_Int_Tables_number   1
_chemical_formula_structural   SiSbPt5
_chemical_formula_sum   'Si1 Sb1 Pt5'
_cell_volume   116.15879400
_cell_formula_units_Z   1
loop_
 _symmetry_equiv_pos_site_id
 _symmetry_equiv_pos_as_xyz
  1  'x, y, z'
loop_
 _atom_site_type_symbol
 _atom_site_label
 _atom_site_symmetry_multiplicity
 _atom_site_fract_x
 _atom_site_fract_y
 _atom_site_fract_z
 _atom_site_occupancy
  Si  Si1  1  0.000000  0.000000  0.500000  1.0
  Sb  Sb2  1  0.500000  0.500000  0.000000  1.0
  Pt  Pt3  1  0.000000  0.500000  0.300405  1.0
  Pt  Pt4  1  0.000000  0.500000  0.699595  1.0
  Pt  Pt5  1  0.500000  0.000000  0.300405  1.0
  Pt  Pt6  1  0.500000  0.000000  0.699595  1.0
  Pt  Pt7  1  0.000000  0.000000  0.000000  1.0
