# generated using pymatgen
data_Tb2B4C
_symmetry_space_group_name_H-M   'P 1'
_cell_length_a   3.29055861
_cell_length_b   5.29176349
_cell_length_c   5.29176349
_cell_angle_alpha   76.75632204
_cell_angle_beta   71.88572517
_cell_angle_gamma   71.88572517
_symmetry_Int_Tables_number   1
_chemical_formula_structural   Tb2B4C
_chemical_formula_sum   'Tb2 B4 C1'
_cell_volume   82.33809577
_cell_formula_units_Z   1
loop_
 _symmetry_equiv_pos_site_id
 _symmetry_equiv_pos_as_xyz
  1  'x, y, z'
loop_
 _atom_site_type_symbol
 _atom_site_label
 _atom_site_symmetry_multiplicity
 _atom_site_fract_x
 _atom_site_fract_y
 _atom_site_fract_z
 _atom_site_occupancy
  Tb  Tb1  1  0.265387  0.234613  0.234613  1.0
  Tb  Tb2  1  0.734613  0.765387  0.765387  1.0
  B  B3  1  0.500000  0.364921  0.635079  1.0
  B  B4  1  0.500000  0.635079  0.364921  1.0
  B  B5  1  0.000000  0.772754  0.227246  1.0
  B  B6  1  0.000000  0.227246  0.772754  1.0
  C  C7  1  0.000000  0.000000  0.000000  1.0
