# generated using pymatgen
data_SmO3
_symmetry_space_group_name_H-M   'P 1'
_cell_length_a   3.51994977
_cell_length_b   6.71720879
_cell_length_c   6.71720879
_cell_angle_alpha   119.99999645
_cell_angle_beta   90.00000000
_cell_angle_gamma   90.00000000
_symmetry_Int_Tables_number   1
_chemical_formula_structural   SmO3
_chemical_formula_sum   'Sm2 O6'
_cell_volume   137.54500029
_cell_formula_units_Z   2
loop_
 _symmetry_equiv_pos_site_id
 _symmetry_equiv_pos_as_xyz
  1  'x, y, z'
loop_
 _atom_site_type_symbol
 _atom_site_label
 _atom_site_symmetry_multiplicity
 _atom_site_fract_x
 _atom_site_fract_y
 _atom_site_fract_z
 _atom_site_occupancy
  Sm  Sm1  1  0.750000  0.666667  0.333333  1.0
  Sm  Sm2  1  0.250000  0.333333  0.666667  1.0
  O  O3  1  0.750000  0.570405  0.628184  1.0
  O  O4  1  0.250000  0.429595  0.371816  1.0
  O  O5  1  0.750000  0.057779  0.429595  1.0
  O  O6  1  0.250000  0.942221  0.570405  1.0
  O  O7  1  0.750000  0.371816  0.942221  1.0
  O  O8  1  0.250000  0.628184  0.057779  1.0
