# generated using pymatgen
data_TbInPt2
_symmetry_space_group_name_H-M   'P 1'
_cell_length_a   4.79515300
_cell_length_b   4.79515300
_cell_length_c   8.40008807
_cell_angle_alpha   90.00000000
_cell_angle_beta   90.00000000
_cell_angle_gamma   119.99999344
_symmetry_Int_Tables_number   1
_chemical_formula_structural   TbInPt2
_chemical_formula_sum   'Tb2 In2 Pt4'
_cell_volume   167.27053175
_cell_formula_units_Z   2
loop_
 _symmetry_equiv_pos_site_id
 _symmetry_equiv_pos_as_xyz
  1  'x, y, z'
loop_
 _atom_site_type_symbol
 _atom_site_label
 _atom_site_symmetry_multiplicity
 _atom_site_fract_x
 _atom_site_fract_y
 _atom_site_fract_z
 _atom_site_occupancy
  Tb  Tb1  1  0.000000  0.000000  0.000000  1.0
  Tb  Tb2  1  0.000000  0.000000  0.500000  1.0
  In  In3  1  0.666667  0.333333  0.750000  1.0
  In  In4  1  0.333333  0.666667  0.250000  1.0
  Pt  Pt5  1  0.666667  0.333333  0.409002  1.0
  Pt  Pt6  1  0.333333  0.666667  0.590998  1.0
  Pt  Pt7  1  0.333333  0.666667  0.909002  1.0
  Pt  Pt8  1  0.666667  0.333333  0.090998  1.0
