# generated using pymatgen
data_LiNb2O
_symmetry_space_group_name_H-M   'P 1'
_cell_length_a   2.87631142
_cell_length_b   2.87631142
_cell_length_c   16.76141489
_cell_angle_alpha   90.00000000
_cell_angle_beta   90.00000000
_cell_angle_gamma   119.99999715
_symmetry_Int_Tables_number   1
_chemical_formula_structural   LiNb2O
_chemical_formula_sum   'Li2 Nb4 O2'
_cell_volume   120.09173839
_cell_formula_units_Z   2
loop_
 _symmetry_equiv_pos_site_id
 _symmetry_equiv_pos_as_xyz
  1  'x, y, z'
loop_
 _atom_site_type_symbol
 _atom_site_label
 _atom_site_symmetry_multiplicity
 _atom_site_fract_x
 _atom_site_fract_y
 _atom_site_fract_z
 _atom_site_occupancy
  Li  Li1  1  0.666667  0.333333  0.750000  1.0
  Li  Li2  1  0.333333  0.666667  0.250000  1.0
  Nb  Nb3  1  0.666667  0.333333  0.405507  1.0
  Nb  Nb4  1  0.333333  0.666667  0.594493  1.0
  Nb  Nb5  1  0.333333  0.666667  0.905507  1.0
  Nb  Nb6  1  0.666667  0.333333  0.094493  1.0
  O  O7  1  0.000000  0.000000  0.000000  1.0
  O  O8  1  0.000000  0.000000  0.500000  1.0
