# generated using pymatgen
data_PrSiAg
_symmetry_space_group_name_H-M   'P 1'
_cell_length_a   4.28775008
_cell_length_b   4.28775008
_cell_length_c   8.19170729
_cell_angle_alpha   105.17172076
_cell_angle_beta   105.17172076
_cell_angle_gamma   90.00000000
_symmetry_Int_Tables_number   1
_chemical_formula_structural   PrSiAg
_chemical_formula_sum   'Pr2 Si2 Ag2'
_cell_volume   139.90781180
_cell_formula_units_Z   2
loop_
 _symmetry_equiv_pos_site_id
 _symmetry_equiv_pos_as_xyz
  1  'x, y, z'
loop_
 _atom_site_type_symbol
 _atom_site_label
 _atom_site_symmetry_multiplicity
 _atom_site_fract_x
 _atom_site_fract_y
 _atom_site_fract_z
 _atom_site_occupancy
  Pr  Pr1  1  0.581080  0.581080  0.162160  1.0
  Pr  Pr2  1  0.831080  0.331080  0.662160  1.0
  Si  Si3  1  0.999723  0.999723  0.999446  1.0
  Si  Si4  1  0.249723  0.749723  0.499446  1.0
  Ag  Ag5  1  0.166197  0.166197  0.332394  1.0
  Ag  Ag6  1  0.416197  0.916197  0.832394  1.0
