# generated using pymatgen
data_Nb2CrSe4
_symmetry_space_group_name_H-M   'P 1'
_cell_length_a   3.53510594
_cell_length_b   6.38954161
_cell_length_c   7.08250152
_cell_angle_alpha   114.84815557
_cell_angle_beta   104.45184349
_cell_angle_gamma   90.00000001
_symmetry_Int_Tables_number   1
_chemical_formula_structural   Nb2CrSe4
_chemical_formula_sum   'Nb2 Cr1 Se4'
_cell_volume   139.56932814
_cell_formula_units_Z   1
loop_
 _symmetry_equiv_pos_site_id
 _symmetry_equiv_pos_as_xyz
  1  'x, y, z'
loop_
 _atom_site_type_symbol
 _atom_site_label
 _atom_site_symmetry_multiplicity
 _atom_site_fract_x
 _atom_site_fract_y
 _atom_site_fract_z
 _atom_site_occupancy
  Nb  Nb1  1  0.256691  0.321039  0.513382  1.0
  Nb  Nb2  1  0.743309  0.678961  0.486618  1.0
  Cr  Cr3  1  0.000000  0.000000  0.000000  1.0
  Se  Se4  1  0.899690  0.554490  0.799380  1.0
  Se  Se5  1  0.364290  0.023636  0.728580  1.0
  Se  Se6  1  0.100310  0.445510  0.200620  1.0
  Se  Se7  1  0.635710  0.976364  0.271420  1.0
