# generated using pymatgen
data_CoMoP2
_symmetry_space_group_name_H-M   'P 1'
_cell_length_a   3.30855206
_cell_length_b   3.30855206
_cell_length_c   11.15756100
_cell_angle_alpha   90.00000000
_cell_angle_beta   90.00000000
_cell_angle_gamma   120.00000522
_symmetry_Int_Tables_number   1
_chemical_formula_structural   CoMoP2
_chemical_formula_sum   'Co2 Mo2 P4'
_cell_volume   105.77324398
_cell_formula_units_Z   2
loop_
 _symmetry_equiv_pos_site_id
 _symmetry_equiv_pos_as_xyz
  1  'x, y, z'
loop_
 _atom_site_type_symbol
 _atom_site_label
 _atom_site_symmetry_multiplicity
 _atom_site_fract_x
 _atom_site_fract_y
 _atom_site_fract_z
 _atom_site_occupancy
  Co  Co1  1  0.000000  0.000000  0.000000  1.0
  Co  Co2  1  0.000000  0.000000  0.500000  1.0
  Mo  Mo3  1  0.000000  0.000000  0.750000  1.0
  Mo  Mo4  1  0.000000  0.000000  0.250000  1.0
  P  P5  1  0.666667  0.333333  0.891160  1.0
  P  P6  1  0.333333  0.666667  0.108840  1.0
  P  P7  1  0.333333  0.666667  0.391160  1.0
  P  P8  1  0.666667  0.333333  0.608840  1.0
