# generated using pymatgen
data_HoO3
_symmetry_space_group_name_H-M   'P 1'
_cell_length_a   3.40243012
_cell_length_b   6.48793244
_cell_length_c   6.48793244
_cell_angle_alpha   120.00000458
_cell_angle_beta   90.00000000
_cell_angle_gamma   90.00000000
_symmetry_Int_Tables_number   1
_chemical_formula_structural   HoO3
_chemical_formula_sum   'Ho2 O6'
_cell_volume   124.03163357
_cell_formula_units_Z   2
loop_
 _symmetry_equiv_pos_site_id
 _symmetry_equiv_pos_as_xyz
  1  'x, y, z'
loop_
 _atom_site_type_symbol
 _atom_site_label
 _atom_site_symmetry_multiplicity
 _atom_site_fract_x
 _atom_site_fract_y
 _atom_site_fract_z
 _atom_site_occupancy
  Ho  Ho1  1  0.750000  0.666667  0.333333  1.0
  Ho  Ho2  1  0.250000  0.333333  0.666667  1.0
  O  O3  1  0.750000  0.575477  0.633426  1.0
  O  O4  1  0.250000  0.424523  0.366574  1.0
  O  O5  1  0.750000  0.057949  0.424523  1.0
  O  O6  1  0.250000  0.942051  0.575477  1.0
  O  O7  1  0.750000  0.366574  0.942051  1.0
  O  O8  1  0.250000  0.633426  0.057949  1.0
