# generated using pymatgen
data_TbGaI
_symmetry_space_group_name_H-M   'P 1'
_cell_length_a   4.20900446
_cell_length_b   4.20900446
_cell_length_c   11.68600894
_cell_angle_alpha   90.00000000
_cell_angle_beta   90.00000000
_cell_angle_gamma   119.99999430
_symmetry_Int_Tables_number   1
_chemical_formula_structural   TbGaI
_chemical_formula_sum   'Tb2 Ga2 I2'
_cell_volume   179.28982476
_cell_formula_units_Z   2
loop_
 _symmetry_equiv_pos_site_id
 _symmetry_equiv_pos_as_xyz
  1  'x, y, z'
loop_
 _atom_site_type_symbol
 _atom_site_label
 _atom_site_symmetry_multiplicity
 _atom_site_fract_x
 _atom_site_fract_y
 _atom_site_fract_z
 _atom_site_occupancy
  Tb  Tb1  1  0.000000  0.000000  0.826401  1.0
  Tb  Tb2  1  0.000000  0.000000  0.173599  1.0
  Ga  Ga3  1  0.666667  0.333333  0.970130  1.0
  Ga  Ga4  1  0.333333  0.666667  0.029870  1.0
  I  I5  1  0.666667  0.333333  0.345381  1.0
  I  I6  1  0.333333  0.666667  0.654619  1.0
