# generated using pymatgen
data_Hf(VGa2)2
_symmetry_space_group_name_H-M   'P 1'
_cell_length_a   5.18776662
_cell_length_b   5.25547383
_cell_length_c   5.25547383
_cell_angle_alpha   75.90089247
_cell_angle_beta   60.42526486
_cell_angle_gamma   60.42526486
_symmetry_Int_Tables_number   1
_chemical_formula_structural   Hf(VGa2)2
_chemical_formula_sum   'Hf1 V2 Ga4'
_cell_volume   108.38165066
_cell_formula_units_Z   1
loop_
 _symmetry_equiv_pos_site_id
 _symmetry_equiv_pos_as_xyz
  1  'x, y, z'
loop_
 _atom_site_type_symbol
 _atom_site_label
 _atom_site_symmetry_multiplicity
 _atom_site_fract_x
 _atom_site_fract_y
 _atom_site_fract_z
 _atom_site_occupancy
  Hf  Hf1  1  0.000000  0.000000  0.000000  1.0
  V  V2  1  0.250000  0.500000  0.500000  1.0
  V  V3  1  0.750000  0.500000  0.500000  1.0
  Ga  Ga4  1  0.302323  0.000000  0.395354  1.0
  Ga  Ga5  1  0.697677  0.000000  0.604646  1.0
  Ga  Ga6  1  0.697677  0.604646  0.000000  1.0
  Ga  Ga7  1  0.302323  0.395354  0.000000  1.0
