# generated using pymatgen
data_Ti3B4
_symmetry_space_group_name_H-M   'P 1'
_cell_length_a   3.03897024
_cell_length_b   3.25661180
_cell_length_c   7.23027324
_cell_angle_alpha   103.01503254
_cell_angle_beta   102.13149291
_cell_angle_gamma   90.00000000
_symmetry_Int_Tables_number   1
_chemical_formula_structural   Ti3B4
_chemical_formula_sum   'Ti3 B4'
_cell_volume   68.07683705
_cell_formula_units_Z   1
loop_
 _symmetry_equiv_pos_site_id
 _symmetry_equiv_pos_as_xyz
  1  'x, y, z'
loop_
 _atom_site_type_symbol
 _atom_site_label
 _atom_site_symmetry_multiplicity
 _atom_site_fract_x
 _atom_site_fract_y
 _atom_site_fract_z
 _atom_site_occupancy
  Ti  Ti1  1  0.685559  0.185559  0.371119  1.0
  Ti  Ti2  1  0.314441  0.814441  0.628881  1.0
  Ti  Ti3  1  0.000000  0.000000  0.000000  1.0
  B  B4  1  0.868693  0.368693  0.737386  1.0
  B  B5  1  0.131307  0.631307  0.262614  1.0
  B  B6  1  0.435698  0.435698  0.871397  1.0
  B  B7  1  0.564302  0.564302  0.128603  1.0
