# generated using pymatgen
data_Rb2CuF4
_symmetry_space_group_name_H-M   'P 1'
_cell_length_a   4.24559539
_cell_length_b   4.24559539
_cell_length_c   7.43652631
_cell_angle_alpha   106.58608077
_cell_angle_beta   106.58608077
_cell_angle_gamma   90.00000000
_symmetry_Int_Tables_number   1
_chemical_formula_structural   Rb2CuF4
_chemical_formula_sum   'Rb2 Cu1 F4'
_cell_volume   122.63597958
_cell_formula_units_Z   1
loop_
 _symmetry_equiv_pos_site_id
 _symmetry_equiv_pos_as_xyz
  1  'x, y, z'
loop_
 _atom_site_type_symbol
 _atom_site_label
 _atom_site_symmetry_multiplicity
 _atom_site_fract_x
 _atom_site_fract_y
 _atom_site_fract_z
 _atom_site_occupancy
  Rb  Rb1  1  0.356248  0.356248  0.712496  1.0
  Rb  Rb2  1  0.643752  0.643752  0.287504  1.0
  Cu  Cu3  1  0.000000  0.000000  0.000000  1.0
  F  F4  1  0.145237  0.145237  0.290474  1.0
  F  F5  1  0.854763  0.854763  0.709526  1.0
  F  F6  1  0.000000  0.500000  0.000000  1.0
  F  F7  1  0.500000  0.000000  0.000000  1.0
