# generated using pymatgen
data_Ho2B4C
_symmetry_space_group_name_H-M   'P 1'
_cell_length_a   3.27035660
_cell_length_b   5.23773415
_cell_length_c   5.23773415
_cell_angle_alpha   77.53613525
_cell_angle_beta   71.80862425
_cell_angle_gamma   71.80862425
_symmetry_Int_Tables_number   1
_chemical_formula_structural   Ho2B4C
_chemical_formula_sum   'Ho2 B4 C1'
_cell_volume   80.27487429
_cell_formula_units_Z   1
loop_
 _symmetry_equiv_pos_site_id
 _symmetry_equiv_pos_as_xyz
  1  'x, y, z'
loop_
 _atom_site_type_symbol
 _atom_site_label
 _atom_site_symmetry_multiplicity
 _atom_site_fract_x
 _atom_site_fract_y
 _atom_site_fract_z
 _atom_site_occupancy
  Ho  Ho1  1  0.265962  0.234038  0.234038  1.0
  Ho  Ho2  1  0.734038  0.765962  0.765962  1.0
  B  B3  1  0.500000  0.365392  0.634608  1.0
  B  B4  1  0.500000  0.634608  0.365392  1.0
  B  B5  1  0.000000  0.772052  0.227948  1.0
  B  B6  1  0.000000  0.227948  0.772052  1.0
  C  C7  1  0.000000  0.000000  0.000000  1.0
