# generated using pymatgen
data_Cs2PuO4
_symmetry_space_group_name_H-M   'P 1'
_cell_length_a   4.39678822
_cell_length_b   4.39678822
_cell_length_c   8.20600530
_cell_angle_alpha   105.53938109
_cell_angle_beta   105.53938109
_cell_angle_gamma   90.00000000
_symmetry_Int_Tables_number   1
_chemical_formula_structural   Cs2PuO4
_chemical_formula_sum   'Cs2 Pu1 O4'
_cell_volume   146.81013813
_cell_formula_units_Z   1
loop_
 _symmetry_equiv_pos_site_id
 _symmetry_equiv_pos_as_xyz
  1  'x, y, z'
loop_
 _atom_site_type_symbol
 _atom_site_label
 _atom_site_symmetry_multiplicity
 _atom_site_fract_x
 _atom_site_fract_y
 _atom_site_fract_z
 _atom_site_occupancy
  Cs  Cs1  1  0.347704  0.347704  0.695408  1.0
  Cs  Cs2  1  0.652296  0.652296  0.304592  1.0
  Pu  Pu3  1  0.000000  0.000000  0.000000  1.0
  O  O4  1  0.126265  0.126265  0.252530  1.0
  O  O5  1  0.873735  0.873735  0.747470  1.0
  O  O6  1  0.000000  0.500000  0.000000  1.0
  O  O7  1  0.500000  0.000000  0.000000  1.0
