# generated using pymatgen
data_Hf4Al3
_symmetry_space_group_name_H-M   'P 1'
_cell_length_a   5.35945712
_cell_length_b   5.35945712
_cell_length_c   5.41736312
_cell_angle_alpha   90.00000000
_cell_angle_beta   90.00000000
_cell_angle_gamma   120.00000290
_symmetry_Int_Tables_number   1
_chemical_formula_structural   Hf4Al3
_chemical_formula_sum   'Hf4 Al3'
_cell_volume   134.75974080
_cell_formula_units_Z   1
loop_
 _symmetry_equiv_pos_site_id
 _symmetry_equiv_pos_as_xyz
  1  'x, y, z'
loop_
 _atom_site_type_symbol
 _atom_site_label
 _atom_site_symmetry_multiplicity
 _atom_site_fract_x
 _atom_site_fract_y
 _atom_site_fract_z
 _atom_site_occupancy
  Hf  Hf1  1  0.000000  0.000000  0.741243  1.0
  Hf  Hf2  1  0.000000  0.000000  0.258757  1.0
  Hf  Hf3  1  0.666667  0.333333  0.500000  1.0
  Hf  Hf4  1  0.333333  0.666667  0.500000  1.0
  Al  Al5  1  0.500000  0.500000  0.000000  1.0
  Al  Al6  1  0.000000  0.500000  0.000000  1.0
  Al  Al7  1  0.500000  0.000000  0.000000  1.0
