# generated using pymatgen
data_Ba2RuO4
_symmetry_space_group_name_H-M   'P 1'
_cell_length_a   4.06090181
_cell_length_b   4.06090181
_cell_length_c   7.34549415
_cell_angle_alpha   106.04673113
_cell_angle_beta   106.04673113
_cell_angle_gamma   90.00000000
_symmetry_Int_Tables_number   1
_chemical_formula_structural   Ba2RuO4
_chemical_formula_sum   'Ba2 Ru1 O4'
_cell_volume   111.49476992
_cell_formula_units_Z   1
loop_
 _symmetry_equiv_pos_site_id
 _symmetry_equiv_pos_as_xyz
  1  'x, y, z'
loop_
 _atom_site_type_symbol
 _atom_site_label
 _atom_site_symmetry_multiplicity
 _atom_site_fract_x
 _atom_site_fract_y
 _atom_site_fract_z
 _atom_site_occupancy
  Ba  Ba1  1  0.355704  0.355704  0.711408  1.0
  Ba  Ba2  1  0.644296  0.644296  0.288592  1.0
  Ru  Ru3  1  0.000000  0.000000  0.000000  1.0
  O  O4  1  0.153614  0.153614  0.307228  1.0
  O  O5  1  0.846386  0.846386  0.692772  1.0
  O  O6  1  0.000000  0.500000  0.000000  1.0
  O  O7  1  0.500000  0.000000  0.000000  1.0
