# generated using pymatgen
data_Er2B4C
_symmetry_space_group_name_H-M   'P 1'
_cell_length_a   3.25906539
_cell_length_b   5.21362504
_cell_length_c   5.21362504
_cell_angle_alpha   77.96720608
_cell_angle_beta   71.78686306
_cell_angle_gamma   71.78686306
_symmetry_Int_Tables_number   1
_chemical_formula_structural   Er2B4C
_chemical_formula_sum   'Er2 B4 C1'
_cell_volume   79.32875099
_cell_formula_units_Z   1
loop_
 _symmetry_equiv_pos_site_id
 _symmetry_equiv_pos_as_xyz
  1  'x, y, z'
loop_
 _atom_site_type_symbol
 _atom_site_label
 _atom_site_symmetry_multiplicity
 _atom_site_fract_x
 _atom_site_fract_y
 _atom_site_fract_z
 _atom_site_occupancy
  Er  Er1  1  0.266248  0.233752  0.233752  1.0
  Er  Er2  1  0.733752  0.766248  0.766248  1.0
  B  B3  1  0.500000  0.365634  0.634366  1.0
  B  B4  1  0.500000  0.634366  0.365634  1.0
  B  B5  1  0.000000  0.771776  0.228224  1.0
  B  B6  1  0.000000  0.228224  0.771776  1.0
  C  C7  1  0.000000  0.000000  0.000000  1.0
