# generated using pymatgen
data_Cs2CuF4
_symmetry_space_group_name_H-M   'P 1'
_cell_length_a   4.36708338
_cell_length_b   4.36708338
_cell_length_c   7.80701202
_cell_angle_alpha   73.78418359
_cell_angle_beta   73.78418359
_cell_angle_gamma   90.08883026
_symmetry_Int_Tables_number   1
_chemical_formula_structural   Cs2CuF4
_chemical_formula_sum   'Cs2 Cu1 F4'
_cell_volume   136.76797766
_cell_formula_units_Z   1
loop_
 _symmetry_equiv_pos_site_id
 _symmetry_equiv_pos_as_xyz
  1  'x, y, z'
loop_
 _atom_site_type_symbol
 _atom_site_label
 _atom_site_symmetry_multiplicity
 _atom_site_fract_x
 _atom_site_fract_y
 _atom_site_fract_z
 _atom_site_occupancy
  Cs  Cs1  1  0.361969  0.348205  0.289826  1.0
  Cs  Cs2  1  0.651795  0.638031  0.710174  1.0
  Cu  Cu3  1  0.008502  0.991498  0.000000  1.0
  F  F4  1  0.145362  0.125825  0.728813  1.0
  F  F5  1  0.874175  0.854638  0.271187  1.0
  F  F6  1  0.009073  0.489676  0.000000  1.0
  F  F7  1  0.510324  0.990927  0.000000  1.0
