# generated using pymatgen
data_Cs2NpO4
_symmetry_space_group_name_H-M   'P 1'
_cell_length_a   4.40350858
_cell_length_b   4.40350858
_cell_length_c   8.38372418
_cell_angle_alpha   105.22572489
_cell_angle_beta   105.22572489
_cell_angle_gamma   90.00000000
_symmetry_Int_Tables_number   1
_chemical_formula_structural   Cs2NpO4
_chemical_formula_sum   'Cs2 Np1 O4'
_cell_volume   150.93958459
_cell_formula_units_Z   1
loop_
 _symmetry_equiv_pos_site_id
 _symmetry_equiv_pos_as_xyz
  1  'x, y, z'
loop_
 _atom_site_type_symbol
 _atom_site_label
 _atom_site_symmetry_multiplicity
 _atom_site_fract_x
 _atom_site_fract_y
 _atom_site_fract_z
 _atom_site_occupancy
  Cs  Cs1  1  0.349207  0.349207  0.698414  1.0
  Cs  Cs2  1  0.650793  0.650793  0.301586  1.0
  Np  Np3  1  0.000000  0.000000  0.000000  1.0
  O  O4  1  0.123482  0.123482  0.246966  1.0
  O  O5  1  0.876518  0.876518  0.753034  1.0
  O  O6  1  0.000000  0.500000  0.000000  1.0
  O  O7  1  0.500000  0.000000  0.000000  1.0
