# generated using pymatgen
data_Ag2O
_symmetry_space_group_name_H-M   'P 1'
_cell_length_a   3.21546827
_cell_length_b   3.21546828
_cell_length_c   4.98854699
_cell_angle_alpha   90.00000000
_cell_angle_beta   90.00000000
_cell_angle_gamma   120.00000005
_symmetry_Int_Tables_number   1
_chemical_formula_structural   Ag2O
_chemical_formula_sum   'Ag2 O1'
_cell_volume   44.66765540
_cell_formula_units_Z   1
loop_
 _symmetry_equiv_pos_site_id
 _symmetry_equiv_pos_as_xyz
  1  'x, y, z'
loop_
 _atom_site_type_symbol
 _atom_site_label
 _atom_site_symmetry_multiplicity
 _atom_site_fract_x
 _atom_site_fract_y
 _atom_site_fract_z
 _atom_site_occupancy
  Ag  Ag1  1  0.333333  0.666667  0.287379  1.0
  Ag  Ag2  1  0.666667  0.333333  0.712621  1.0
  O  O3  1  0.000000  0.000000  0.000000  1.0
