# generated using pymatgen
data_HgOs
_symmetry_space_group_name_H-M   'P 1'
_cell_length_a   2.89268497
_cell_length_b   2.89268984
_cell_length_c   4.77968296
_cell_angle_alpha   90.00000000
_cell_angle_beta   90.00000000
_cell_angle_gamma   119.99328993
_symmetry_Int_Tables_number   1
_chemical_formula_structural   HgOs
_chemical_formula_sum   'Hg1 Os1'
_cell_volume   34.63874051
_cell_formula_units_Z   1
loop_
 _symmetry_equiv_pos_site_id
 _symmetry_equiv_pos_as_xyz
  1  'x, y, z'
loop_
 _atom_site_type_symbol
 _atom_site_label
 _atom_site_symmetry_multiplicity
 _atom_site_fract_x
 _atom_site_fract_y
 _atom_site_fract_z
 _atom_site_occupancy
  Hg  Hg1  1  0.666672  0.333326  0.749999  1.0
  Os  Os2  1  0.333327  0.666674  0.249999  1.0
