# generated using pymatgen
data_SrNiO3
_symmetry_space_group_name_H-M   'P 1'
_cell_length_a   5.50045052
_cell_length_b   3.88533486
_cell_length_c   3.87665859
_cell_angle_alpha   89.94774539
_cell_angle_beta   90.00511387
_cell_angle_gamma   45.08893293
_symmetry_Int_Tables_number   1
_chemical_formula_structural   SrNiO3
_chemical_formula_sum   'Sr1 Ni1 O3'
_cell_volume   58.67348921
_cell_formula_units_Z   1
loop_
 _symmetry_equiv_pos_site_id
 _symmetry_equiv_pos_as_xyz
  1  'x, y, z'
loop_
 _atom_site_type_symbol
 _atom_site_label
 _atom_site_symmetry_multiplicity
 _atom_site_fract_x
 _atom_site_fract_y
 _atom_site_fract_z
 _atom_site_occupancy
  Sr  Sr1  1  0.998581  0.006855  0.503302  1.0
  Ni  Ni2  1  0.498645  0.006640  0.004267  1.0
  O  O3  1  0.509382  0.994913  0.504824  1.0
  O  O4  1  0.487098  0.520060  0.007512  1.0
  O  O5  1  0.998454  0.514709  0.007397  1.0
