# generated using pymatgen
data_Rb(ThSe3)2
_symmetry_space_group_name_H-M   'P 1'
_cell_length_a   4.26453770
_cell_length_b   5.58810761
_cell_length_c   12.06449045
_cell_angle_alpha   103.39088750
_cell_angle_beta   100.17988698
_cell_angle_gamma   89.99999995
_symmetry_Int_Tables_number   1
_chemical_formula_structural   Rb(ThSe3)2
_chemical_formula_sum   'Rb1 Th2 Se6'
_cell_volume   275.03412717
_cell_formula_units_Z   1
loop_
 _symmetry_equiv_pos_site_id
 _symmetry_equiv_pos_as_xyz
  1  'x, y, z'
loop_
 _atom_site_type_symbol
 _atom_site_label
 _atom_site_symmetry_multiplicity
 _atom_site_fract_x
 _atom_site_fract_y
 _atom_site_fract_z
 _atom_site_occupancy
  Rb  Rb1  1  0.000000  0.000000  0.000000  1.0
  Th  Th2  1  0.819745  0.319745  0.639490  1.0
  Th  Th3  1  0.180255  0.680255  0.360510  1.0
  Se  Se4  1  0.390792  0.144815  0.781585  1.0
  Se  Se5  1  0.228964  0.228964  0.457928  1.0
  Se  Se6  1  0.609208  0.363230  0.218415  1.0
  Se  Se7  1  0.390792  0.636770  0.781585  1.0
  Se  Se8  1  0.609208  0.855185  0.218415  1.0
  Se  Se9  1  0.771036  0.771036  0.542072  1.0
