# generated using pymatgen
data_YMnO3
_symmetry_space_group_name_H-M   'P 1'
_cell_length_a   3.87588686
_cell_length_b   3.87043850
_cell_length_c   3.87043845
_cell_angle_alpha   90.00964609
_cell_angle_beta   90.00000000
_cell_angle_gamma   90.00000000
_symmetry_Int_Tables_number   1
_chemical_formula_structural   YMnO3
_chemical_formula_sum   'Y1 Mn1 O3'
_cell_volume   58.06192381
_cell_formula_units_Z   1
loop_
 _symmetry_equiv_pos_site_id
 _symmetry_equiv_pos_as_xyz
  1  'x, y, z'
loop_
 _atom_site_type_symbol
 _atom_site_label
 _atom_site_symmetry_multiplicity
 _atom_site_fract_x
 _atom_site_fract_y
 _atom_site_fract_z
 _atom_site_occupancy
  Y  Y1  1  0.000000  0.000000  0.000000  1.0
  Mn  Mn2  1  0.500001  0.500000  0.499999  1.0
  O  O3  1  0.500001  0.499999  0.000001  1.0
  O  O4  1  0.500001  0.000001  0.500001  1.0
  O  O5  1  0.000000  0.500000  0.499999  1.0
