# generated using pymatgen
data_NdMnSi2
_symmetry_space_group_name_H-M   'P 1'
_cell_length_a   3.98609400
_cell_length_b   4.07435866
_cell_length_c   9.03057281
_cell_angle_alpha   103.03740263
_cell_angle_beta   90.00000000
_cell_angle_gamma   90.00000000
_symmetry_Int_Tables_number   1
_chemical_formula_structural   NdMnSi2
_chemical_formula_sum   'Nd2 Mn2 Si4'
_cell_volume   142.88297158
_cell_formula_units_Z   2
loop_
 _symmetry_equiv_pos_site_id
 _symmetry_equiv_pos_as_xyz
  1  'x, y, z'
loop_
 _atom_site_type_symbol
 _atom_site_label
 _atom_site_symmetry_multiplicity
 _atom_site_fract_x
 _atom_site_fract_y
 _atom_site_fract_z
 _atom_site_occupancy
  Nd  Nd1  1  0.250000  0.898728  0.797457  1.0
  Nd  Nd2  1  0.750000  0.101272  0.202543  1.0
  Mn  Mn3  1  0.750000  0.750229  0.500459  1.0
  Mn  Mn4  1  0.250000  0.249771  0.499541  1.0
  Si  Si5  1  0.250000  0.677827  0.355655  1.0
  Si  Si6  1  0.750000  0.322173  0.644345  1.0
  Si  Si7  1  0.750000  0.463464  0.926928  1.0
  Si  Si8  1  0.250000  0.536536  0.073072  1.0
