# generated using pymatgen
data_TmZr
_symmetry_space_group_name_H-M   'P 1'
_cell_length_a   3.38539714
_cell_length_b   3.38539655
_cell_length_c   5.31792055
_cell_angle_alpha   89.99461707
_cell_angle_beta   90.00546909
_cell_angle_gamma   120.00155231
_symmetry_Int_Tables_number   1
_chemical_formula_structural   TmZr
_chemical_formula_sum   'Tm1 Zr1'
_cell_volume   52.78187946
_cell_formula_units_Z   1
loop_
 _symmetry_equiv_pos_site_id
 _symmetry_equiv_pos_as_xyz
  1  'x, y, z'
loop_
 _atom_site_type_symbol
 _atom_site_label
 _atom_site_symmetry_multiplicity
 _atom_site_fract_x
 _atom_site_fract_y
 _atom_site_fract_z
 _atom_site_occupancy
  Tm  Tm1  1  0.666667  0.333332  0.749990  1.0
  Zr  Zr2  1  0.333332  0.666665  0.250010  1.0
