# generated using pymatgen
data_HoGa2Pd
_symmetry_space_group_name_H-M   'P 1'
_cell_length_a   5.53391709
_cell_length_b   5.53391709
_cell_length_c   6.60490803
_cell_angle_alpha   90.00000000
_cell_angle_beta   90.00000000
_cell_angle_gamma   47.17374452
_symmetry_Int_Tables_number   1
_chemical_formula_structural   HoGa2Pd
_chemical_formula_sum   'Ho2 Ga4 Pd2'
_cell_volume   148.34875107
_cell_formula_units_Z   2
loop_
 _symmetry_equiv_pos_site_id
 _symmetry_equiv_pos_as_xyz
  1  'x, y, z'
loop_
 _atom_site_type_symbol
 _atom_site_label
 _atom_site_symmetry_multiplicity
 _atom_site_fract_x
 _atom_site_fract_y
 _atom_site_fract_z
 _atom_site_occupancy
  Ho  Ho1  1  0.411391  0.411391  0.250000  1.0
  Ho  Ho2  1  0.588608  0.588608  0.750000  1.0
  Ga  Ga3  1  0.126987  0.126987  0.052712  1.0
  Ga  Ga4  1  0.873012  0.873012  0.552713  1.0
  Ga  Ga5  1  0.873012  0.873012  0.947288  1.0
  Ga  Ga6  1  0.126987  0.126987  0.447287  1.0
  Pd  Pd7  1  0.699943  0.699943  0.250000  1.0
  Pd  Pd8  1  0.300057  0.300057  0.750000  1.0
