# generated using pymatgen
data_SrAgO3
_symmetry_space_group_name_H-M   'P 1'
_cell_length_a   4.10990249
_cell_length_b   4.11049275
_cell_length_c   4.11034916
_cell_angle_alpha   89.99999024
_cell_angle_beta   89.99997296
_cell_angle_gamma   90.00004307
_symmetry_Int_Tables_number   1
_chemical_formula_structural   SrAgO3
_chemical_formula_sum   'Sr1 Ag1 O3'
_cell_volume   69.43910585
_cell_formula_units_Z   1
loop_
 _symmetry_equiv_pos_site_id
 _symmetry_equiv_pos_as_xyz
  1  'x, y, z'
loop_
 _atom_site_type_symbol
 _atom_site_label
 _atom_site_symmetry_multiplicity
 _atom_site_fract_x
 _atom_site_fract_y
 _atom_site_fract_z
 _atom_site_occupancy
  Sr  Sr1  1  0.000000  0.000000  0.000000  1.0
  Ag  Ag2  1  0.499999  0.500000  0.499999  1.0
  O  O3  1  0.499999  0.499999  0.999999  1.0
  O  O4  1  0.499999  0.000000  0.499999  1.0
  O  O5  1  0.999999  0.499998  0.499999  1.0
