# generated using pymatgen
data_Dy3Y
_symmetry_space_group_name_H-M   'P 1'
_cell_length_a   5.03787076
_cell_length_b   5.03786592
_cell_length_c   5.03786484
_cell_angle_alpha   90.00000898
_cell_angle_beta   89.99992892
_cell_angle_gamma   89.99995280
_symmetry_Int_Tables_number   1
_chemical_formula_structural   Dy3Y
_chemical_formula_sum   'Dy3 Y1'
_cell_volume   127.86160114
_cell_formula_units_Z   1
loop_
 _symmetry_equiv_pos_site_id
 _symmetry_equiv_pos_as_xyz
  1  'x, y, z'
loop_
 _atom_site_type_symbol
 _atom_site_label
 _atom_site_symmetry_multiplicity
 _atom_site_fract_x
 _atom_site_fract_y
 _atom_site_fract_z
 _atom_site_occupancy
  Dy  Dy1  1  0.500000  0.500001  0.000000  1.0
  Dy  Dy2  1  0.499998  0.000000  0.500000  1.0
  Dy  Dy3  1  0.000000  0.500000  0.499999  1.0
  Y  Y4  1  0.000001  0.999999  0.000001  1.0
