# generated using pymatgen
data_TmTh3
_symmetry_space_group_name_H-M   'P 1'
_cell_length_a   5.03720862
_cell_length_b   5.03718365
_cell_length_c   5.03703246
_cell_angle_alpha   89.99713675
_cell_angle_beta   90.00538854
_cell_angle_gamma   90.00008208
_symmetry_Int_Tables_number   1
_chemical_formula_structural   TmTh3
_chemical_formula_sum   'Tm1 Th3'
_cell_volume   127.80636117
_cell_formula_units_Z   1
loop_
 _symmetry_equiv_pos_site_id
 _symmetry_equiv_pos_as_xyz
  1  'x, y, z'
loop_
 _atom_site_type_symbol
 _atom_site_label
 _atom_site_symmetry_multiplicity
 _atom_site_fract_x
 _atom_site_fract_y
 _atom_site_fract_z
 _atom_site_occupancy
  Tm  Tm1  1  0.999998  0.000000  0.999998  1.0
  Th  Th2  1  0.000000  0.500000  0.500001  1.0
  Th  Th3  1  0.499999  0.999999  0.500000  1.0
  Th  Th4  1  0.500004  0.500001  0.000000  1.0
