# generated using pymatgen
data_Ba3(AlSi)2
_symmetry_space_group_name_H-M   'P 1'
_cell_length_a   4.31321693
_cell_length_b   5.13358708
_cell_length_c   10.58813715
_cell_angle_alpha   104.02626988
_cell_angle_beta   101.75233063
_cell_angle_gamma   90.00000003
_symmetry_Int_Tables_number   1
_chemical_formula_structural   Ba3(AlSi)2
_chemical_formula_sum   'Ba3 Al2 Si2'
_cell_volume   222.38632198
_cell_formula_units_Z   1
loop_
 _symmetry_equiv_pos_site_id
 _symmetry_equiv_pos_as_xyz
  1  'x, y, z'
loop_
 _atom_site_type_symbol
 _atom_site_label
 _atom_site_symmetry_multiplicity
 _atom_site_fract_x
 _atom_site_fract_y
 _atom_site_fract_z
 _atom_site_occupancy
  Ba  Ba1  1  0.500000  0.000000  0.000000  1.0
  Ba  Ba2  1  0.815535  0.815587  0.631069  1.0
  Ba  Ba3  1  0.184465  0.184413  0.368931  1.0
  Al  Al4  1  0.065187  0.565013  0.130374  1.0
  Al  Al5  1  0.934813  0.434987  0.869626  1.0
  Si  Si6  1  0.633420  0.633301  0.266839  1.0
  Si  Si7  1  0.366580  0.366699  0.733161  1.0
