# generated using pymatgen
data_DyHO2
_symmetry_space_group_name_H-M   'P 1'
_cell_length_a   3.52982276
_cell_length_b   3.52985674
_cell_length_c   9.22438361
_cell_angle_alpha   90.00161286
_cell_angle_beta   89.99911153
_cell_angle_gamma   120.00022010
_symmetry_Int_Tables_number   1
_chemical_formula_structural   DyHO2
_chemical_formula_sum   'Dy2 H2 O4'
_cell_volume   99.53527087
_cell_formula_units_Z   2
loop_
 _symmetry_equiv_pos_site_id
 _symmetry_equiv_pos_as_xyz
  1  'x, y, z'
loop_
 _atom_site_type_symbol
 _atom_site_label
 _atom_site_symmetry_multiplicity
 _atom_site_fract_x
 _atom_site_fract_y
 _atom_site_fract_z
 _atom_site_occupancy
  Dy  Dy1  1  0.000001  0.000117  0.000000  1.0
  Dy  Dy2  1  0.000000  0.999992  0.500000  1.0
  H  H3  1  0.333320  0.666668  0.250001  1.0
  H  H4  1  0.666680  0.333355  0.749999  1.0
  O  O5  1  0.333334  0.666729  0.117094  1.0
  O  O6  1  0.333323  0.666628  0.382909  1.0
  O  O7  1  0.666668  0.333381  0.882906  1.0
  O  O8  1  0.666676  0.333331  0.617091  1.0
