# generated using pymatgen
data_TbCo2B2C
_symmetry_space_group_name_H-M   'P 1'
_cell_length_a   3.54914731
_cell_length_b   3.54876252
_cell_length_c   5.71986935
_cell_angle_alpha   108.07209856
_cell_angle_beta   108.07413075
_cell_angle_gamma   90.00000000
_symmetry_Int_Tables_number   1
_chemical_formula_structural   TbCo2B2C
_chemical_formula_sum   'Tb1 Co2 B2 C1'
_cell_volume   64.73843001
_cell_formula_units_Z   1
loop_
 _symmetry_equiv_pos_site_id
 _symmetry_equiv_pos_as_xyz
  1  'x, y, z'
loop_
 _atom_site_type_symbol
 _atom_site_label
 _atom_site_symmetry_multiplicity
 _atom_site_fract_x
 _atom_site_fract_y
 _atom_site_fract_z
 _atom_site_occupancy
  Tb  Tb1  1  0.500000  0.500000  0.000000  1.0
  Co  Co2  1  0.750012  0.250012  0.500025  1.0
  Co  Co3  1  0.249988  0.749988  0.499975  1.0
  B  B4  1  0.146106  0.146106  0.292214  1.0
  B  B5  1  0.853894  0.853894  0.707786  1.0
  C  C6  1  0.000000  0.000000  0.000000  1.0
