# generated using pymatgen
data_RbHg2
_symmetry_space_group_name_H-M   'P 1'
_cell_length_a   5.40730101
_cell_length_b   7.05818820
_cell_length_c   7.05818820
_cell_angle_alpha   75.55964013
_cell_angle_beta   67.47716364
_cell_angle_gamma   67.47716368
_symmetry_Int_Tables_number   1
_chemical_formula_structural   RbHg2
_chemical_formula_sum   'Rb2 Hg4'
_cell_volume   228.18600375
_cell_formula_units_Z   2
loop_
 _symmetry_equiv_pos_site_id
 _symmetry_equiv_pos_as_xyz
  1  'x, y, z'
loop_
 _atom_site_type_symbol
 _atom_site_label
 _atom_site_symmetry_multiplicity
 _atom_site_fract_x
 _atom_site_fract_y
 _atom_site_fract_z
 _atom_site_occupancy
  Rb  Rb1  1  0.947616  0.302384  0.302384  1.0
  Rb  Rb2  1  0.052384  0.697616  0.697616  1.0
  Hg  Hg3  1  0.335329  0.103193  0.726148  1.0
  Hg  Hg4  1  0.664671  0.896807  0.273852  1.0
  Hg  Hg5  1  0.664671  0.273852  0.896807  1.0
  Hg  Hg6  1  0.335329  0.726148  0.103193  1.0
