# generated using pymatgen
data_ErCoSi2
_symmetry_space_group_name_H-M   'P 1'
_cell_length_a   3.96470005
_cell_length_b   3.99761148
_cell_length_c   8.36162447
_cell_angle_alpha   103.83019156
_cell_angle_beta   90.00000000
_cell_angle_gamma   90.00000000
_symmetry_Int_Tables_number   1
_chemical_formula_structural   ErCoSi2
_chemical_formula_sum   'Er2 Co2 Si4'
_cell_volume   128.68401095
_cell_formula_units_Z   2
loop_
 _symmetry_equiv_pos_site_id
 _symmetry_equiv_pos_as_xyz
  1  'x, y, z'
loop_
 _atom_site_type_symbol
 _atom_site_label
 _atom_site_symmetry_multiplicity
 _atom_site_fract_x
 _atom_site_fract_y
 _atom_site_fract_z
 _atom_site_occupancy
  Er  Er1  1  0.250000  0.892492  0.784985  1.0
  Er  Er2  1  0.750000  0.107508  0.215015  1.0
  Co  Co3  1  0.750000  0.321556  0.643112  1.0
  Co  Co4  1  0.250000  0.678444  0.356888  1.0
  Si  Si5  1  0.250000  0.249905  0.499811  1.0
  Si  Si6  1  0.750000  0.750095  0.500189  1.0
  Si  Si7  1  0.750000  0.457880  0.915759  1.0
  Si  Si8  1  0.250000  0.542120  0.084241  1.0
