# generated using pymatgen
data_SrCuO2
_symmetry_space_group_name_H-M   'P 1'
_cell_length_a   3.64443727
_cell_length_b   3.97426336
_cell_length_c   8.32909299
_cell_angle_alpha   90.00000000
_cell_angle_beta   102.63724330
_cell_angle_gamma   90.00000000
_symmetry_Int_Tables_number   1
_chemical_formula_structural   SrCuO2
_chemical_formula_sum   'Sr2 Cu2 O4'
_cell_volume   117.71570625
_cell_formula_units_Z   2
loop_
 _symmetry_equiv_pos_site_id
 _symmetry_equiv_pos_as_xyz
  1  'x, y, z'
loop_
 _atom_site_type_symbol
 _atom_site_label
 _atom_site_symmetry_multiplicity
 _atom_site_fract_x
 _atom_site_fract_y
 _atom_site_fract_z
 _atom_site_occupancy
  Sr  Sr1  1  0.332590  0.750000  0.665181  1.0
  Sr  Sr2  1  0.667410  0.250000  0.334819  1.0
  Cu  Cu3  1  0.937835  0.250000  0.875670  1.0
  Cu  Cu4  1  0.062165  0.750000  0.124330  1.0
  O  O5  1  0.179619  0.750000  0.359239  1.0
  O  O6  1  0.820381  0.250000  0.640761  1.0
  O  O7  1  0.055158  0.250000  0.110316  1.0
  O  O8  1  0.944842  0.750000  0.889684  1.0
