# generated using pymatgen
data_WO3
_symmetry_space_group_name_H-M   'P 1'
_cell_length_a   3.85969020
_cell_length_b   7.72025184
_cell_length_c   7.73354437
_cell_angle_alpha   90.00000000
_cell_angle_beta   89.99776498
_cell_angle_gamma   90.00000000
_symmetry_Int_Tables_number   1
_chemical_formula_structural   WO3
_chemical_formula_sum   'W4 O12'
_cell_volume   230.44245643
_cell_formula_units_Z   4
loop_
 _symmetry_equiv_pos_site_id
 _symmetry_equiv_pos_as_xyz
  1  'x, y, z'
loop_
 _atom_site_type_symbol
 _atom_site_label
 _atom_site_symmetry_multiplicity
 _atom_site_fract_x
 _atom_site_fract_y
 _atom_site_fract_z
 _atom_site_occupancy
  W  W1  1  0.994554  0.250000  0.994670  1.0
  W  W2  1  0.005446  0.750000  0.005330  1.0
  W  W3  1  0.995949  0.750000  0.505445  1.0
  W  W4  1  0.004051  0.250000  0.494555  1.0
  O  O5  1  0.502213  0.750000  0.994011  1.0
  O  O6  1  0.497787  0.250000  0.005989  1.0
  O  O7  1  0.999843  0.250000  0.251752  1.0
  O  O8  1  0.000157  0.750000  0.748248  1.0
  O  O9  1  0.000000  0.500000  0.500000  1.0
  O  O10  1  0.000000  0.000000  0.500000  1.0
  O  O11  1  0.000000  0.000000  0.000000  1.0
  O  O12  1  0.000000  0.500000  0.000000  1.0
  O  O13  1  0.000601  0.750000  0.248396  1.0
  O  O14  1  0.999399  0.250000  0.751604  1.0
  O  O15  1  0.499806  0.250000  0.504349  1.0
  O  O16  1  0.500194  0.750000  0.495651  1.0
