# generated using pymatgen
data_Tm2SeO2
_symmetry_space_group_name_H-M   'P 1'
_cell_length_a   3.78368589
_cell_length_b   3.78367516
_cell_length_c   6.75352083
_cell_angle_alpha   89.99972272
_cell_angle_beta   89.99980854
_cell_angle_gamma   120.00029279
_symmetry_Int_Tables_number   1
_chemical_formula_structural   Tm2SeO2
_chemical_formula_sum   'Tm2 Se1 O2'
_cell_volume   83.73143096
_cell_formula_units_Z   1
loop_
 _symmetry_equiv_pos_site_id
 _symmetry_equiv_pos_as_xyz
  1  'x, y, z'
loop_
 _atom_site_type_symbol
 _atom_site_label
 _atom_site_symmetry_multiplicity
 _atom_site_fract_x
 _atom_site_fract_y
 _atom_site_fract_z
 _atom_site_occupancy
  Tm  Tm1  1  0.333309  0.666676  0.292078  1.0
  Tm  Tm2  1  0.666630  0.333324  0.707921  1.0
  Se  Se3  1  0.999907  0.000000  0.000000  1.0
  O  O4  1  0.333306  0.666657  0.625509  1.0
  O  O5  1  0.666647  0.333343  0.374491  1.0
