# generated using pymatgen
data_TiO2
_symmetry_space_group_name_H-M   'P 1'
_cell_length_a   4.78941926
_cell_length_b   7.28717069
_cell_length_c   2.98197600
_cell_angle_alpha   78.17851019
_cell_angle_beta   89.95456942
_cell_angle_gamma   91.88169159
_symmetry_Int_Tables_number   1
_chemical_formula_structural   TiO2
_chemical_formula_sum   'Ti3 O6'
_cell_volume   101.80958276
_cell_formula_units_Z   3
loop_
 _symmetry_equiv_pos_site_id
 _symmetry_equiv_pos_as_xyz
  1  'x, y, z'
loop_
 _atom_site_type_symbol
 _atom_site_label
 _atom_site_symmetry_multiplicity
 _atom_site_fract_x
 _atom_site_fract_y
 _atom_site_fract_z
 _atom_site_occupancy
  Ti  Ti1  1  0.520168  0.316550  0.332621  1.0
  Ti  Ti2  1  0.480193  0.683963  0.645817  1.0
  Ti  Ti3  1  0.001131  0.000450  0.990327  1.0
  O  O4  1  0.819162  0.128376  0.437876  1.0
  O  O5  1  0.700670  0.450738  0.771308  1.0
  O  O6  1  0.688924  0.805448  0.094558  1.0
  O  O7  1  0.311495  0.191928  0.904402  1.0
  O  O8  1  0.299909  0.547073  0.223592  1.0
  O  O9  1  0.181735  0.869140  0.566649  1.0
