# generated using pymatgen
data_Y4GaCo4
_symmetry_space_group_name_H-M   'P 1'
_cell_length_a   4.07153946
_cell_length_b   5.47835634
_cell_length_c   8.92634565
_cell_angle_alpha   108.88214642
_cell_angle_beta   90.00000000
_cell_angle_gamma   111.81446831
_symmetry_Int_Tables_number   1
_chemical_formula_structural   Y4GaCo4
_chemical_formula_sum   'Y4 Ga1 Co4'
_cell_volume   173.25358791
_cell_formula_units_Z   1
loop_
 _symmetry_equiv_pos_site_id
 _symmetry_equiv_pos_as_xyz
  1  'x, y, z'
loop_
 _atom_site_type_symbol
 _atom_site_label
 _atom_site_symmetry_multiplicity
 _atom_site_fract_x
 _atom_site_fract_y
 _atom_site_fract_z
 _atom_site_occupancy
  Y  Y1  1  0.254695  0.509389  0.660706  1.0
  Y  Y2  1  0.745305  0.490611  0.339294  1.0
  Y  Y3  1  0.609548  0.219097  0.884314  1.0
  Y  Y4  1  0.390452  0.780903  0.115686  1.0
  Ga  Ga5  1  0.500000  0.000000  0.500000  1.0
  Co  Co6  1  0.963038  0.926076  0.646072  1.0
  Co  Co7  1  0.036962  0.073924  0.353928  1.0
  Co  Co8  1  0.911019  0.822038  0.879261  1.0
  Co  Co9  1  0.088981  0.177962  0.120739  1.0
