# generated using pymatgen
data_Yb2(NiB2)3
_symmetry_space_group_name_H-M   'P 1'
_cell_length_a   3.47112364
_cell_length_b   5.75559651
_cell_length_c   5.75559651
_cell_angle_alpha   96.30178901
_cell_angle_beta   90.00000000
_cell_angle_gamma   90.00000000
_symmetry_Int_Tables_number   1
_chemical_formula_structural   Yb2(NiB2)3
_chemical_formula_sum   'Yb2 Ni3 B6'
_cell_volume   114.29272622
_cell_formula_units_Z   1
loop_
 _symmetry_equiv_pos_site_id
 _symmetry_equiv_pos_as_xyz
  1  'x, y, z'
loop_
 _atom_site_type_symbol
 _atom_site_label
 _atom_site_symmetry_multiplicity
 _atom_site_fract_x
 _atom_site_fract_y
 _atom_site_fract_z
 _atom_site_occupancy
  Yb  Yb1  1  0.000000  0.727231  0.272769  1.0
  Yb  Yb2  1  0.000000  0.272769  0.727231  1.0
  Ni  Ni3  1  0.000000  0.773128  0.773128  1.0
  Ni  Ni4  1  0.000000  0.226872  0.226872  1.0
  Ni  Ni5  1  0.500000  0.000000  0.000000  1.0
  B  B6  1  0.500000  0.613054  0.613054  1.0
  B  B7  1  0.500000  0.386946  0.386946  1.0
  B  B8  1  0.500000  0.910553  0.610217  1.0
  B  B9  1  0.500000  0.089447  0.389783  1.0
  B  B10  1  0.500000  0.610217  0.910553  1.0
  B  B11  1  0.500000  0.389783  0.089447  1.0
