# generated using pymatgen
data_KTcO4
_symmetry_space_group_name_H-M   'P 1'
_cell_length_a   5.78901161
_cell_length_b   5.78901162
_cell_length_c   7.72253687
_cell_angle_alpha   112.01274432
_cell_angle_beta   112.01274433
_cell_angle_gamma   90.00000002
_symmetry_Int_Tables_number   1
_chemical_formula_structural   KTcO4
_chemical_formula_sum   'K2 Tc2 O8'
_cell_volume   219.45351933
_cell_formula_units_Z   2
loop_
 _symmetry_equiv_pos_site_id
 _symmetry_equiv_pos_as_xyz
  1  'x, y, z'
loop_
 _atom_site_type_symbol
 _atom_site_label
 _atom_site_symmetry_multiplicity
 _atom_site_fract_x
 _atom_site_fract_y
 _atom_site_fract_z
 _atom_site_occupancy
  K  K1  1  0.375000  0.125000  0.750000  1.0
  K  K2  1  0.625000  0.875000  0.250000  1.0
  Tc  Tc3  1  0.875000  0.625000  0.750000  1.0
  Tc  Tc4  1  0.125000  0.375000  0.250000  1.0
  O  O5  1  0.911344  0.328442  0.598443  1.0
  O  O6  1  0.270000  0.411344  0.098443  1.0
  O  O7  1  0.828442  0.187099  0.098443  1.0
  O  O8  1  0.687099  0.770000  0.598443  1.0
  O  O9  1  0.312901  0.230000  0.401557  1.0
  O  O10  1  0.171558  0.812901  0.901557  1.0
  O  O11  1  0.730000  0.588656  0.901557  1.0
  O  O12  1  0.088656  0.671558  0.401557  1.0
