# generated using pymatgen
data_Ba2As
_symmetry_space_group_name_H-M   'P 1'
_cell_length_a   5.10703821
_cell_length_b   5.10703821
_cell_length_c   9.72430250
_cell_angle_alpha   105.22388792
_cell_angle_beta   105.22388786
_cell_angle_gamma   90.00000002
_symmetry_Int_Tables_number   1
_chemical_formula_structural   Ba2As
_chemical_formula_sum   'Ba4 As2'
_cell_volume   235.49046918
_cell_formula_units_Z   2
loop_
 _symmetry_equiv_pos_site_id
 _symmetry_equiv_pos_as_xyz
  1  'x, y, z'
loop_
 _atom_site_type_symbol
 _atom_site_label
 _atom_site_symmetry_multiplicity
 _atom_site_fract_x
 _atom_site_fract_y
 _atom_site_fract_z
 _atom_site_occupancy
  Ba  Ba1  1  0.315932  0.315932  0.631864  1.0
  Ba  Ba2  1  0.684068  0.684068  0.368136  1.0
  Ba  Ba3  1  0.500000  0.000000  0.000000  1.0
  Ba  Ba4  1  0.000000  0.500000  0.000000  1.0
  As  As5  1  0.132249  0.132249  0.264498  1.0
  As  As6  1  0.867751  0.867751  0.735502  1.0
