# generated using pymatgen
data_Sr2In3Rh2
_symmetry_space_group_name_H-M   'P 1'
_cell_length_a   4.32980417
_cell_length_b   5.98336084
_cell_length_c   7.86689851
_cell_angle_alpha   69.18757184
_cell_angle_beta   74.02658482
_cell_angle_gamma   68.78796412
_symmetry_Int_Tables_number   1
_chemical_formula_structural   Sr2In3Rh2
_chemical_formula_sum   'Sr2 In3 Rh2'
_cell_volume   175.06770460
_cell_formula_units_Z   1
loop_
 _symmetry_equiv_pos_site_id
 _symmetry_equiv_pos_as_xyz
  1  'x, y, z'
loop_
 _atom_site_type_symbol
 _atom_site_label
 _atom_site_symmetry_multiplicity
 _atom_site_fract_x
 _atom_site_fract_y
 _atom_site_fract_z
 _atom_site_occupancy
  Sr  Sr1  1  0.856177  0.511283  0.776363  1.0
  Sr  Sr2  1  0.143823  0.488717  0.223637  1.0
  In  In3  1  0.500000  0.000000  0.000000  1.0
  In  In4  1  0.641398  0.160734  0.556470  1.0
  In  In5  1  0.358602  0.839266  0.443530  1.0
  Rh  Rh6  1  0.871813  0.049761  0.206613  1.0
  Rh  Rh7  1  0.128187  0.950239  0.793387  1.0
