# generated using pymatgen
data_LiFeO2
_symmetry_space_group_name_H-M   'P 1'
_cell_length_a   4.12249461
_cell_length_b   4.12249461
_cell_length_c   5.25892958
_cell_angle_alpha   66.92334407
_cell_angle_beta   66.92334407
_cell_angle_gamma   89.99845784
_symmetry_Int_Tables_number   1
_chemical_formula_structural   LiFeO2
_chemical_formula_sum   'Li2 Fe2 O4'
_cell_volume   74.38793053
_cell_formula_units_Z   2
loop_
 _symmetry_equiv_pos_site_id
 _symmetry_equiv_pos_as_xyz
  1  'x, y, z'
loop_
 _atom_site_type_symbol
 _atom_site_label
 _atom_site_symmetry_multiplicity
 _atom_site_fract_x
 _atom_site_fract_y
 _atom_site_fract_z
 _atom_site_occupancy
  Li  Li1  1  0.640969  0.890969  0.750000  1.0
  Li  Li2  1  0.390969  0.140969  0.250000  1.0
  Fe  Fe3  1  0.891619  0.641619  0.250000  1.0
  Fe  Fe4  1  0.141619  0.391619  0.750000  1.0
  O  O5  1  0.374280  0.624065  0.285066  1.0
  O  O6  1  0.124065  0.874280  0.785066  1.0
  O  O7  1  0.659346  0.409131  0.714934  1.0
  O  O8  1  0.909131  0.159346  0.214934  1.0
