# generated using pymatgen
data_Fe3N
_symmetry_space_group_name_H-M   'P 1'
_cell_length_a   4.65689264
_cell_length_b   4.65689284
_cell_length_c   17.23102357
_cell_angle_alpha   90.00000000
_cell_angle_beta   90.00000000
_cell_angle_gamma   119.99999858
_symmetry_Int_Tables_number   1
_chemical_formula_structural   Fe3N
_chemical_formula_sum   'Fe24 N8'
_cell_volume   323.61912902
_cell_formula_units_Z   8
loop_
 _symmetry_equiv_pos_site_id
 _symmetry_equiv_pos_as_xyz
  1  'x, y, z'
loop_
 _atom_site_type_symbol
 _atom_site_label
 _atom_site_symmetry_multiplicity
 _atom_site_fract_x
 _atom_site_fract_y
 _atom_site_fract_z
 _atom_site_occupancy
  Fe  Fe1  1  0.005954  0.339662  0.000216  1.0
  Fe  Fe2  1  0.999561  0.327712  0.249834  1.0
  Fe  Fe3  1  0.000061  0.325928  0.750148  1.0
  Fe  Fe4  1  0.333708  0.339662  0.124784  1.0
  Fe  Fe5  1  0.326705  0.326843  0.625089  1.0
  Fe  Fe6  1  0.325867  0.325928  0.374852  1.0
  Fe  Fe7  1  0.328150  0.327712  0.875166  1.0
  Fe  Fe8  1  0.660338  0.666292  0.000216  1.0
  Fe  Fe9  1  0.672288  0.671850  0.249834  1.0
  Fe  Fe10  1  0.674072  0.674133  0.750148  1.0
  Fe  Fe11  1  0.673157  0.673295  0.499911  1.0
  Fe  Fe12  1  0.333708  0.994046  0.000216  1.0
  Fe  Fe13  1  0.328150  0.000439  0.249834  1.0
  Fe  Fe14  1  0.326705  0.999862  0.499911  1.0
  Fe  Fe15  1  0.325867  0.999939  0.750148  1.0
  Fe  Fe16  1  0.660338  0.994046  0.124784  1.0
  Fe  Fe17  1  0.674072  0.999939  0.374852  1.0
  Fe  Fe18  1  0.673157  0.999862  0.625089  1.0
  Fe  Fe19  1  0.672288  0.000439  0.875166  1.0
  Fe  Fe20  1  0.005954  0.666292  0.124784  1.0
  Fe  Fe21  1  0.000061  0.674133  0.374852  1.0
  Fe  Fe22  1  0.000138  0.673295  0.625089  1.0
  Fe  Fe23  1  0.999561  0.671850  0.875166  1.0
  Fe  Fe24  1  0.000138  0.326843  0.499911  1.0
  N  N25  1  0.333333  0.666667  0.311961  1.0
  N  N26  1  0.333333  0.666667  0.562500  1.0
  N  N27  1  0.333333  0.666667  0.813039  1.0
  N  N28  1  0.000000  0.000000  0.062500  1.0
  N  N29  1  0.666667  0.333333  0.187149  1.0
  N  N30  1  0.666667  0.333333  0.437498  1.0
  N  N31  1  0.666667  0.333333  0.687502  1.0
  N  N32  1  0.666667  0.333333  0.937851  1.0
