# generated using pymatgen
data_NaTiS2
_symmetry_space_group_name_H-M   'P 1'
_cell_length_a   3.55470000
_cell_length_b   3.55470000
_cell_length_c   6.79737305
_cell_angle_alpha   90.01778792
_cell_angle_beta   90.01778792
_cell_angle_gamma   60.00060867
_symmetry_Int_Tables_number   1
_chemical_formula_structural   NaTiS2
_chemical_formula_sum   'Na1 Ti1 S2'
_cell_volume   74.38412885
_cell_formula_units_Z   1
loop_
 _symmetry_equiv_pos_site_id
 _symmetry_equiv_pos_as_xyz
  1  'x, y, z'
loop_
 _atom_site_type_symbol
 _atom_site_label
 _atom_site_symmetry_multiplicity
 _atom_site_fract_x
 _atom_site_fract_y
 _atom_site_fract_z
 _atom_site_occupancy
  Na  Na1  1  0.999999  0.000001  0.500000  1.0
  Ti  Ti2  1  0.999997  0.000003  0.000000  1.0
  S  S3  1  0.666600  0.666606  0.790262  1.0
  S  S4  1  0.333394  0.333400  0.209738  1.0
