# generated using pymatgen
data_Ce(Re2Si)2
_symmetry_space_group_name_H-M   'P 1'
_cell_length_a   4.08469001
_cell_length_b   4.15201669
_cell_length_c   7.30161932
_cell_angle_alpha   106.51830379
_cell_angle_beta   90.00000000
_cell_angle_gamma   90.00000000
_symmetry_Int_Tables_number   1
_chemical_formula_structural   Ce(Re2Si)2
_chemical_formula_sum   'Ce1 Re4 Si2'
_cell_volume   118.72255213
_cell_formula_units_Z   1
loop_
 _symmetry_equiv_pos_site_id
 _symmetry_equiv_pos_as_xyz
  1  'x, y, z'
loop_
 _atom_site_type_symbol
 _atom_site_label
 _atom_site_symmetry_multiplicity
 _atom_site_fract_x
 _atom_site_fract_y
 _atom_site_fract_z
 _atom_site_occupancy
  Ce  Ce1  1  0.000000  0.000000  0.000000  1.0
  Re  Re2  1  0.500000  0.813955  0.627910  1.0
  Re  Re3  1  0.000000  0.694651  0.389302  1.0
  Re  Re4  1  0.500000  0.186045  0.372090  1.0
  Re  Re5  1  0.000000  0.305349  0.610698  1.0
  Si  Si6  1  0.500000  0.587058  0.174116  1.0
  Si  Si7  1  0.500000  0.412942  0.825884  1.0
