# generated using pymatgen
data_Cs3YF6
_symmetry_space_group_name_H-M   'P 1'
_cell_length_a   7.30464294
_cell_length_b   7.30464294
_cell_length_c   7.23195205
_cell_angle_alpha   120.33305674
_cell_angle_beta   120.33305676
_cell_angle_gamma   90.00000003
_symmetry_Int_Tables_number   1
_chemical_formula_structural   Cs3YF6
_chemical_formula_sum   'Cs3 Y1 F6'
_cell_volume   270.08870016
_cell_formula_units_Z   1
loop_
 _symmetry_equiv_pos_site_id
 _symmetry_equiv_pos_as_xyz
  1  'x, y, z'
loop_
 _atom_site_type_symbol
 _atom_site_label
 _atom_site_symmetry_multiplicity
 _atom_site_fract_x
 _atom_site_fract_y
 _atom_site_fract_z
 _atom_site_occupancy
  Cs  Cs1  1  0.250000  0.750000  0.500000  1.0
  Cs  Cs2  1  0.500000  0.500000  0.000000  1.0
  Cs  Cs3  1  0.750000  0.250000  0.500000  1.0
  Y  Y4  1  0.000000  0.000000  0.000000  1.0
  F  F5  1  0.701107  0.000000  0.000000  1.0
  F  F6  1  0.000000  0.701107  0.000000  1.0
  F  F7  1  0.000000  0.298893  0.000000  1.0
  F  F8  1  0.298893  0.000000  0.000000  1.0
  F  F9  1  0.220946  0.220946  0.441891  1.0
  F  F10  1  0.779054  0.779054  0.558109  1.0
