# generated using pymatgen
data_ScAl2Ni
_symmetry_space_group_name_H-M   'P 1'
_cell_length_a   4.01131750
_cell_length_b   5.17674734
_cell_length_c   6.68600099
_cell_angle_alpha   90.00000000
_cell_angle_beta   90.00000000
_cell_angle_gamma   112.79505923
_symmetry_Int_Tables_number   1
_chemical_formula_structural   ScAl2Ni
_chemical_formula_sum   'Sc2 Al4 Ni2'
_cell_volume   127.99489264
_cell_formula_units_Z   2
loop_
 _symmetry_equiv_pos_site_id
 _symmetry_equiv_pos_as_xyz
  1  'x, y, z'
loop_
 _atom_site_type_symbol
 _atom_site_label
 _atom_site_symmetry_multiplicity
 _atom_site_fract_x
 _atom_site_fract_y
 _atom_site_fract_z
 _atom_site_occupancy
  Sc  Sc1  1  0.432876  0.865752  0.750000  1.0
  Sc  Sc2  1  0.567124  0.134248  0.250000  1.0
  Al  Al3  1  0.145942  0.291883  0.949267  1.0
  Al  Al4  1  0.854058  0.708117  0.050733  1.0
  Al  Al5  1  0.854058  0.708117  0.449267  1.0
  Al  Al6  1  0.145942  0.291883  0.550733  1.0
  Ni  Ni7  1  0.710483  0.420965  0.750000  1.0
  Ni  Ni8  1  0.289517  0.579035  0.250000  1.0
