# generated using pymatgen
data_SmCo2
_symmetry_space_group_name_H-M   'P 1'
_cell_length_a   5.13415631
_cell_length_b   5.13415630
_cell_length_c   5.13415631
_cell_angle_alpha   60.00000003
_cell_angle_beta   60.00000004
_cell_angle_gamma   60.00000005
_symmetry_Int_Tables_number   1
_chemical_formula_structural   SmCo2
_chemical_formula_sum   'Sm2 Co4'
_cell_volume   95.69566434
_cell_formula_units_Z   2
loop_
 _symmetry_equiv_pos_site_id
 _symmetry_equiv_pos_as_xyz
  1  'x, y, z'
loop_
 _atom_site_type_symbol
 _atom_site_label
 _atom_site_symmetry_multiplicity
 _atom_site_fract_x
 _atom_site_fract_y
 _atom_site_fract_z
 _atom_site_occupancy
  Sm  Sm1  1  0.875000  0.875000  0.875000  1.0
  Sm  Sm2  1  0.125000  0.125000  0.125000  1.0
  Co  Co3  1  0.500000  0.500000  0.500000  1.0
  Co  Co4  1  0.500000  0.500000  0.000000  1.0
  Co  Co5  1  0.000000  0.500000  0.500000  1.0
  Co  Co6  1  0.500000  0.000000  0.500000  1.0
