# generated using pymatgen
data_Ba(CrAs)2
_symmetry_space_group_name_H-M   'P 1'
_cell_length_a   4.13020876
_cell_length_b   4.13020838
_cell_length_c   7.12294259
_cell_angle_alpha   106.85334548
_cell_angle_beta   106.85334439
_cell_angle_gamma   90.00000152
_symmetry_Int_Tables_number   1
_chemical_formula_structural   Ba(CrAs)2
_chemical_formula_sum   'Ba1 Cr2 As2'
_cell_volume   110.82460384
_cell_formula_units_Z   1
loop_
 _symmetry_equiv_pos_site_id
 _symmetry_equiv_pos_as_xyz
  1  'x, y, z'
loop_
 _atom_site_type_symbol
 _atom_site_label
 _atom_site_symmetry_multiplicity
 _atom_site_fract_x
 _atom_site_fract_y
 _atom_site_fract_z
 _atom_site_occupancy
  Ba  Ba1  1  0.000000  0.000000  0.000000  1.0
  Cr  Cr2  1  0.250000  0.750000  0.500000  1.0
  Cr  Cr3  1  0.750000  0.250000  0.500000  1.0
  As  As4  1  0.351788  0.351788  0.703576  1.0
  As  As5  1  0.648212  0.648212  0.296424  1.0
