# generated using pymatgen
data_Cu3P
_symmetry_space_group_name_H-M   'P 1'
_cell_length_a   6.95817129
_cell_length_b   6.95817129
_cell_length_c   7.17811376
_cell_angle_alpha   90.00000000
_cell_angle_beta   90.00000000
_cell_angle_gamma   119.99999997
_symmetry_Int_Tables_number   1
_chemical_formula_structural   Cu3P
_chemical_formula_sum   'Cu18 P6'
_cell_volume   300.97553831
_cell_formula_units_Z   6
loop_
 _symmetry_equiv_pos_site_id
 _symmetry_equiv_pos_as_xyz
  1  'x, y, z'
loop_
 _atom_site_type_symbol
 _atom_site_label
 _atom_site_symmetry_multiplicity
 _atom_site_fract_x
 _atom_site_fract_y
 _atom_site_fract_z
 _atom_site_occupancy
  Cu  Cu1  1  0.384188  0.000000  0.426782  1.0
  Cu  Cu2  1  0.384188  0.384188  0.926782  1.0
  Cu  Cu3  1  0.000000  0.615812  0.926782  1.0
  Cu  Cu4  1  0.000000  0.384188  0.426782  1.0
  Cu  Cu5  1  0.615812  0.615812  0.426782  1.0
  Cu  Cu6  1  0.615812  0.000000  0.926782  1.0
  Cu  Cu7  1  0.333333  0.666667  0.188290  1.0
  Cu  Cu8  1  0.666667  0.333333  0.688290  1.0
  Cu  Cu9  1  0.333333  0.666667  0.688290  1.0
  Cu  Cu10  1  0.666667  0.333333  0.188290  1.0
  Cu  Cu11  1  0.000000  0.000000  0.328336  1.0
  Cu  Cu12  1  0.000000  0.000000  0.828336  1.0
  Cu  Cu13  1  0.728224  0.000000  0.578218  1.0
  Cu  Cu14  1  0.728224  0.728224  0.078218  1.0
  Cu  Cu15  1  0.000000  0.271776  0.078218  1.0
  Cu  Cu16  1  0.000000  0.728224  0.578218  1.0
  Cu  Cu17  1  0.271776  0.271776  0.578218  1.0
  Cu  Cu18  1  0.271776  0.000000  0.078218  1.0
  P  P19  1  0.669247  0.000000  0.251428  1.0
  P  P20  1  0.669247  0.669247  0.751428  1.0
  P  P21  1  0.000000  0.330753  0.751428  1.0
  P  P22  1  0.000000  0.669247  0.251428  1.0
  P  P23  1  0.330753  0.330753  0.251428  1.0
  P  P24  1  0.330753  0.000000  0.751428  1.0
