# generated using pymatgen
data_ThRu2
_symmetry_space_group_name_H-M   'P 1'
_cell_length_a   5.43397217
_cell_length_b   5.43397191
_cell_length_c   5.43397214
_cell_angle_alpha   59.99999861
_cell_angle_beta   60.00000018
_cell_angle_gamma   59.99999497
_symmetry_Int_Tables_number   1
_chemical_formula_structural   ThRu2
_chemical_formula_sum   'Th2 Ru4'
_cell_volume   113.45853931
_cell_formula_units_Z   2
loop_
 _symmetry_equiv_pos_site_id
 _symmetry_equiv_pos_as_xyz
  1  'x, y, z'
loop_
 _atom_site_type_symbol
 _atom_site_label
 _atom_site_symmetry_multiplicity
 _atom_site_fract_x
 _atom_site_fract_y
 _atom_site_fract_z
 _atom_site_occupancy
  Th  Th1  1  0.125000  0.125000  0.125000  1.0
  Th  Th2  1  0.875000  0.875000  0.875000  1.0
  Ru  Ru3  1  0.500000  0.500000  0.000000  1.0
  Ru  Ru4  1  0.000000  0.500000  0.500000  1.0
  Ru  Ru5  1  0.500000  0.000000  0.500000  1.0
  Ru  Ru6  1  0.500000  0.500000  0.500000  1.0
