# generated using pymatgen
data_RbCuO2
_symmetry_space_group_name_H-M   'P 1'
_cell_length_a   4.93420405
_cell_length_b   5.50584038
_cell_length_c   6.45671485
_cell_angle_alpha   90.00000000
_cell_angle_beta   112.46373855
_cell_angle_gamma   90.00000000
_symmetry_Int_Tables_number   1
_chemical_formula_structural   RbCuO2
_chemical_formula_sum   'Rb2 Cu2 O4'
_cell_volume   162.09940566
_cell_formula_units_Z   2
loop_
 _symmetry_equiv_pos_site_id
 _symmetry_equiv_pos_as_xyz
  1  'x, y, z'
loop_
 _atom_site_type_symbol
 _atom_site_label
 _atom_site_symmetry_multiplicity
 _atom_site_fract_x
 _atom_site_fract_y
 _atom_site_fract_z
 _atom_site_occupancy
  Rb  Rb1  1  0.309399  0.750000  0.618798  1.0
  Rb  Rb2  1  0.690601  0.250000  0.381202  1.0
  Cu  Cu3  1  0.997837  0.250000  0.995675  1.0
  Cu  Cu4  1  0.002163  0.750000  0.004325  1.0
  O  O5  1  0.896859  0.504074  0.793719  1.0
  O  O6  1  0.103141  0.495926  0.206281  1.0
  O  O7  1  0.896859  0.995926  0.793719  1.0
  O  O8  1  0.103141  0.004074  0.206281  1.0
