# generated using pymatgen
data_Y2Zr2O7
_symmetry_space_group_name_H-M   'P 1'
_cell_length_a   7.50115155
_cell_length_b   7.50115163
_cell_length_c   7.50115228
_cell_angle_alpha   60.00000192
_cell_angle_beta   60.00000163
_cell_angle_gamma   60.00000143
_symmetry_Int_Tables_number   1
_chemical_formula_structural   Y2Zr2O7
_chemical_formula_sum   'Y4 Zr4 O14'
_cell_volume   298.44814573
_cell_formula_units_Z   2
loop_
 _symmetry_equiv_pos_site_id
 _symmetry_equiv_pos_as_xyz
  1  'x, y, z'
loop_
 _atom_site_type_symbol
 _atom_site_label
 _atom_site_symmetry_multiplicity
 _atom_site_fract_x
 _atom_site_fract_y
 _atom_site_fract_z
 _atom_site_occupancy
  Y  Y1  1  0.500000  0.000000  0.500000  1.0
  Y  Y2  1  0.000000  0.500000  0.500000  1.0
  Y  Y3  1  0.500000  0.500000  0.500000  1.0
  Y  Y4  1  0.500000  0.500000  0.000000  1.0
  Zr  Zr5  1  0.000000  0.000000  0.000000  1.0
  Zr  Zr6  1  0.000000  0.000000  0.500000  1.0
  Zr  Zr7  1  0.000000  0.500000  0.000000  1.0
  Zr  Zr8  1  0.500000  0.000000  0.000000  1.0
  O  O9  1  0.090569  0.659431  0.659431  1.0
  O  O10  1  0.909431  0.340569  0.340569  1.0
  O  O11  1  0.340569  0.340569  0.909431  1.0
  O  O12  1  0.340569  0.909431  0.340569  1.0
  O  O13  1  0.659431  0.090569  0.659431  1.0
  O  O14  1  0.909431  0.909431  0.340569  1.0
  O  O15  1  0.659431  0.090569  0.090569  1.0
  O  O16  1  0.340569  0.909431  0.909431  1.0
  O  O17  1  0.659431  0.659431  0.090569  1.0
  O  O18  1  0.090569  0.659431  0.090569  1.0
  O  O19  1  0.625000  0.625000  0.625000  1.0
  O  O20  1  0.909431  0.340569  0.909431  1.0
  O  O21  1  0.090569  0.090569  0.659431  1.0
  O  O22  1  0.375000  0.375000  0.375000  1.0
