# generated using pymatgen
data_RbAuO2
_symmetry_space_group_name_H-M   'P 1'
_cell_length_a   4.88031672
_cell_length_b   6.13360484
_cell_length_c   6.64179664
_cell_angle_alpha   90.00000000
_cell_angle_beta   111.55500773
_cell_angle_gamma   90.00000000
_symmetry_Int_Tables_number   1
_chemical_formula_structural   RbAuO2
_chemical_formula_sum   'Rb2 Au2 O4'
_cell_volume   184.91102411
_cell_formula_units_Z   2
loop_
 _symmetry_equiv_pos_site_id
 _symmetry_equiv_pos_as_xyz
  1  'x, y, z'
loop_
 _atom_site_type_symbol
 _atom_site_label
 _atom_site_symmetry_multiplicity
 _atom_site_fract_x
 _atom_site_fract_y
 _atom_site_fract_z
 _atom_site_occupancy
  Rb  Rb1  1  0.302066  0.750000  0.604131  1.0
  Rb  Rb2  1  0.697934  0.250000  0.395869  1.0
  Au  Au3  1  0.997556  0.250000  0.995112  1.0
  Au  Au4  1  0.002444  0.750000  0.004888  1.0
  O  O5  1  0.890934  0.504636  0.781868  1.0
  O  O6  1  0.109066  0.495364  0.218132  1.0
  O  O7  1  0.890934  0.995364  0.781868  1.0
  O  O8  1  0.109066  0.004636  0.218132  1.0
