# generated using pymatgen
data_Pm2CuSi
_symmetry_space_group_name_H-M   'P 1'
_cell_length_a   5.06733544
_cell_length_b   5.06734345
_cell_length_c   5.06734180
_cell_angle_alpha   59.99944612
_cell_angle_beta   59.99955418
_cell_angle_gamma   59.99948268
_symmetry_Int_Tables_number   1
_chemical_formula_structural   Pm2CuSi
_chemical_formula_sum   'Pm2 Cu1 Si1'
_cell_volume   92.00686154
_cell_formula_units_Z   1
loop_
 _symmetry_equiv_pos_site_id
 _symmetry_equiv_pos_as_xyz
  1  'x, y, z'
loop_
 _atom_site_type_symbol
 _atom_site_label
 _atom_site_symmetry_multiplicity
 _atom_site_fract_x
 _atom_site_fract_y
 _atom_site_fract_z
 _atom_site_occupancy
  Pm  Pm1  1  0.000000  0.000000  0.000000  1.0
  Pm  Pm2  1  0.500000  0.500001  0.500001  1.0
  Cu  Cu3  1  0.249999  0.249999  0.249999  1.0
  Si  Si4  1  0.750000  0.750000  0.750000  1.0
