# generated using pymatgen
data_TiMn2Ga
_symmetry_space_group_name_H-M   'P 1'
_cell_length_a   4.32818314
_cell_length_b   4.33100476
_cell_length_c   4.33245729
_cell_angle_alpha   59.99504315
_cell_angle_beta   60.03011462
_cell_angle_gamma   60.04786570
_symmetry_Int_Tables_number   1
_chemical_formula_structural   TiMn2Ga
_chemical_formula_sum   'Ti1 Mn2 Ga1'
_cell_volume   57.45832540
_cell_formula_units_Z   1
loop_
 _symmetry_equiv_pos_site_id
 _symmetry_equiv_pos_as_xyz
  1  'x, y, z'
loop_
 _atom_site_type_symbol
 _atom_site_label
 _atom_site_symmetry_multiplicity
 _atom_site_fract_x
 _atom_site_fract_y
 _atom_site_fract_z
 _atom_site_occupancy
  Ti  Ti1  1  0.750069  0.750013  0.749978  1.0
  Mn  Mn2  1  0.499989  0.500089  0.499791  1.0
  Mn  Mn3  1  0.999959  0.999948  0.000270  1.0
  Ga  Ga4  1  0.249984  0.249953  0.249962  1.0
