# generated using pymatgen
data_Ba(AsPd)2
_symmetry_space_group_name_H-M   'P 1'
_cell_length_a   4.53102894
_cell_length_b   4.53102894
_cell_length_c   6.23432980
_cell_angle_alpha   111.30874489
_cell_angle_beta   111.30874484
_cell_angle_gamma   89.99999994
_symmetry_Int_Tables_number   1
_chemical_formula_structural   Ba(AsPd)2
_chemical_formula_sum   'Ba1 As2 Pd2'
_cell_volume   109.79688623
_cell_formula_units_Z   1
loop_
 _symmetry_equiv_pos_site_id
 _symmetry_equiv_pos_as_xyz
  1  'x, y, z'
loop_
 _atom_site_type_symbol
 _atom_site_label
 _atom_site_symmetry_multiplicity
 _atom_site_fract_x
 _atom_site_fract_y
 _atom_site_fract_z
 _atom_site_occupancy
  Ba  Ba1  1  0.000000  0.000000  0.000000  1.0
  As  As2  1  0.631932  0.631932  0.263865  1.0
  As  As3  1  0.368068  0.368068  0.736135  1.0
  Pd  Pd4  1  0.750000  0.250000  0.500000  1.0
  Pd  Pd5  1  0.250000  0.750000  0.500000  1.0
