# generated using pymatgen
data_Hf2ZnRe
_symmetry_space_group_name_H-M   'P 1'
_cell_length_a   4.66665195
_cell_length_b   4.66665195
_cell_length_c   4.66665195
_cell_angle_alpha   59.98700015
_cell_angle_beta   59.98700015
_cell_angle_gamma   59.98700015
_symmetry_Int_Tables_number   1
_chemical_formula_structural   Hf2ZnRe
_chemical_formula_sum   'Hf2 Zn1 Re1'
_cell_volume   71.84113805
_cell_formula_units_Z   1
loop_
 _symmetry_equiv_pos_site_id
 _symmetry_equiv_pos_as_xyz
  1  'x, y, z'
loop_
 _atom_site_type_symbol
 _atom_site_label
 _atom_site_symmetry_multiplicity
 _atom_site_fract_x
 _atom_site_fract_y
 _atom_site_fract_z
 _atom_site_occupancy
  Hf  Hf1  1  0.000011  0.000011  0.000011  1.0
  Hf  Hf2  1  0.499988  0.499988  0.499988  1.0
  Zn  Zn3  1  0.750000  0.750000  0.750000  1.0
  Re  Re4  1  0.250001  0.250001  0.250001  1.0
