# generated using pymatgen
data_Be2RhAu
_symmetry_space_group_name_H-M   'P 1'
_cell_length_a   4.05214007
_cell_length_b   4.05216080
_cell_length_c   4.05218354
_cell_angle_alpha   60.00045556
_cell_angle_beta   60.00057257
_cell_angle_gamma   60.00059554
_symmetry_Int_Tables_number   1
_chemical_formula_structural   Be2RhAu
_chemical_formula_sum   'Be2 Rh1 Au1'
_cell_volume   47.04901759
_cell_formula_units_Z   1
loop_
 _symmetry_equiv_pos_site_id
 _symmetry_equiv_pos_as_xyz
  1  'x, y, z'
loop_
 _atom_site_type_symbol
 _atom_site_label
 _atom_site_symmetry_multiplicity
 _atom_site_fract_x
 _atom_site_fract_y
 _atom_site_fract_z
 _atom_site_occupancy
  Be  Be1  1  0.499999  0.499998  0.500000  1.0
  Be  Be2  1  0.000001  0.999999  0.000000  1.0
  Rh  Rh3  1  0.750001  0.750002  0.750000  1.0
  Au  Au4  1  0.250000  0.250001  0.250000  1.0
