# generated using pymatgen
data_LuAsO4
_symmetry_space_group_name_H-M   'P 1'
_cell_length_a   5.86951330
_cell_length_b   5.86951330
_cell_length_c   5.86951330
_cell_angle_alpha   106.61874170
_cell_angle_beta   106.61874172
_cell_angle_gamma   115.34047065
_symmetry_Int_Tables_number   1
_chemical_formula_structural   LuAsO4
_chemical_formula_sum   'Lu2 As2 O8'
_cell_volume   154.42505786
_cell_formula_units_Z   2
loop_
 _symmetry_equiv_pos_site_id
 _symmetry_equiv_pos_as_xyz
  1  'x, y, z'
loop_
 _atom_site_type_symbol
 _atom_site_label
 _atom_site_symmetry_multiplicity
 _atom_site_fract_x
 _atom_site_fract_y
 _atom_site_fract_z
 _atom_site_occupancy
  Lu  Lu1  1  0.125000  0.875000  0.250000  1.0
  Lu  Lu2  1  0.875000  0.125000  0.750000  1.0
  As  As3  1  0.375000  0.625000  0.750000  1.0
  As  As4  1  0.625000  0.375000  0.250000  1.0
  O  O5  1  0.806372  0.739796  0.433424  1.0
  O  O6  1  0.372948  0.806372  0.566576  1.0
  O  O7  1  0.739796  0.806372  0.933424  1.0
  O  O8  1  0.806372  0.372948  0.066576  1.0
  O  O9  1  0.627052  0.193628  0.433424  1.0
  O  O10  1  0.193628  0.260204  0.566576  1.0
  O  O11  1  0.193628  0.627052  0.933424  1.0
  O  O12  1  0.260204  0.193628  0.066576  1.0
