# generated using pymatgen
data_Li3C
_symmetry_space_group_name_H-M   'P 1'
_cell_length_a   3.73726624
_cell_length_b   3.73726624
_cell_length_c   3.73726624
_cell_angle_alpha   120.20215856
_cell_angle_beta   120.20215856
_cell_angle_gamma   89.65020631
_symmetry_Int_Tables_number   1
_chemical_formula_structural   Li3C
_chemical_formula_sum   'Li3 C1'
_cell_volume   36.79673387
_cell_formula_units_Z   1
loop_
 _symmetry_equiv_pos_site_id
 _symmetry_equiv_pos_as_xyz
  1  'x, y, z'
loop_
 _atom_site_type_symbol
 _atom_site_label
 _atom_site_symmetry_multiplicity
 _atom_site_fract_x
 _atom_site_fract_y
 _atom_site_fract_z
 _atom_site_occupancy
  Li  Li1  1  0.749999  0.250000  0.499999  1.0
  Li  Li2  1  0.250000  0.749999  0.499999  1.0
  Li  Li3  1  0.500001  0.500001  0.000000  1.0
  C  C4  1  0.000000  0.000000  0.000000  1.0
