# generated using pymatgen
data_VCuO4
_symmetry_space_group_name_H-M   'P 1'
_cell_length_a   5.82000035
_cell_length_b   5.82000050
_cell_length_c   5.82000034
_cell_angle_alpha   115.45194376
_cell_angle_beta   121.66524539
_cell_angle_gamma   92.59585006
_symmetry_Int_Tables_number   1
_chemical_formula_structural   VCuO4
_chemical_formula_sum   'V2 Cu2 O8'
_cell_volume   141.78097287
_cell_formula_units_Z   2
loop_
 _symmetry_equiv_pos_site_id
 _symmetry_equiv_pos_as_xyz
  1  'x, y, z'
loop_
 _atom_site_type_symbol
 _atom_site_label
 _atom_site_symmetry_multiplicity
 _atom_site_fract_x
 _atom_site_fract_y
 _atom_site_fract_z
 _atom_site_occupancy
  V  V1  1  0.717349  0.467350  0.250000  1.0
  V  V2  1  0.282649  0.532650  0.750000  1.0
  Cu  Cu3  1  0.500001  0.000000  0.500000  1.0
  Cu  Cu4  1  0.000000  0.000000  0.000000  1.0
  O  O5  1  0.229710  0.788139  0.058427  1.0
  O  O6  1  0.166621  0.658897  0.507725  1.0
  O  O7  1  0.833379  0.341102  0.492276  1.0
  O  O8  1  0.348828  0.341102  0.007724  1.0
  O  O9  1  0.770289  0.828717  0.558428  1.0
  O  O10  1  0.770290  0.211861  0.941573  1.0
  O  O11  1  0.651172  0.658897  0.992276  1.0
  O  O12  1  0.229711  0.171283  0.441572  1.0
