# generated using pymatgen
data_Th2TeN2
_symmetry_space_group_name_H-M   'P 1'
_cell_length_a   4.10866034
_cell_length_b   4.10866034
_cell_length_c   7.19691271
_cell_angle_alpha   106.58551188
_cell_angle_beta   106.58551186
_cell_angle_gamma   89.99999998
_symmetry_Int_Tables_number   1
_chemical_formula_structural   Th2TeN2
_chemical_formula_sum   'Th2 Te1 N2'
_cell_volume   111.15272479
_cell_formula_units_Z   1
loop_
 _symmetry_equiv_pos_site_id
 _symmetry_equiv_pos_as_xyz
  1  'x, y, z'
loop_
 _atom_site_type_symbol
 _atom_site_label
 _atom_site_symmetry_multiplicity
 _atom_site_fract_x
 _atom_site_fract_y
 _atom_site_fract_z
 _atom_site_occupancy
  Th  Th1  1  0.336663  0.336663  0.673325  1.0
  Th  Th2  1  0.663337  0.663337  0.326675  1.0
  Te  Te3  1  0.000000  0.000000  0.000000  1.0
  N  N4  1  0.750000  0.250000  0.500000  1.0
  N  N5  1  0.250000  0.750000  0.500000  1.0
