# generated using pymatgen
data_PbWO4
_symmetry_space_group_name_H-M   'P 1'
_cell_length_a   5.55795391
_cell_length_b   5.58789955
_cell_length_c   7.27994211
_cell_angle_alpha   112.29734945
_cell_angle_beta   112.46111976
_cell_angle_gamma   89.63600707
_symmetry_Int_Tables_number   1
_chemical_formula_structural   PbWO4
_chemical_formula_sum   'Pb2 W2 O8'
_cell_volume   190.76328798
_cell_formula_units_Z   2
loop_
 _symmetry_equiv_pos_site_id
 _symmetry_equiv_pos_as_xyz
  1  'x, y, z'
loop_
 _atom_site_type_symbol
 _atom_site_label
 _atom_site_symmetry_multiplicity
 _atom_site_fract_x
 _atom_site_fract_y
 _atom_site_fract_z
 _atom_site_occupancy
  Pb  Pb1  1  0.378827  0.123730  0.751034  1.0
  Pb  Pb2  1  0.615429  0.873477  0.246242  1.0
  W  W3  1  0.875320  0.623467  0.751606  1.0
  W  W4  1  0.131843  0.382892  0.252626  1.0
  O  O5  1  0.192757  0.573324  0.924915  1.0
  O  O6  1  0.664070  0.304897  0.582722  1.0
  O  O7  1  0.087334  0.238288  0.425811  1.0
  O  O8  1  0.804574  0.421769  0.086540  1.0
  O  O9  1  0.932870  0.786237  0.593540  1.0
  O  O10  1  0.286300  0.157086  0.090496  1.0
  O  O11  1  0.704381  0.831858  0.907077  1.0
  O  O12  1  0.341560  0.704311  0.408871  1.0
