# generated using pymatgen
data_BaCO3
_symmetry_space_group_name_H-M   'P 1'
_cell_length_a   7.11676800
_cell_length_b   5.40390254
_cell_length_c   4.58013735
_cell_angle_alpha   90.00000000
_cell_angle_beta   110.54042338
_cell_angle_gamma   90.00000000
_symmetry_Int_Tables_number   1
_chemical_formula_structural   BaCO3
_chemical_formula_sum   'Ba2 C2 O6'
_cell_volume   164.94598969
_cell_formula_units_Z   2
loop_
 _symmetry_equiv_pos_site_id
 _symmetry_equiv_pos_as_xyz
  1  'x, y, z'
loop_
 _atom_site_type_symbol
 _atom_site_label
 _atom_site_symmetry_multiplicity
 _atom_site_fract_x
 _atom_site_fract_y
 _atom_site_fract_z
 _atom_site_occupancy
  Ba  Ba1  1  0.227815  0.765809  0.906184  1.0
  Ba  Ba2  1  0.772185  0.265809  0.093816  1.0
  C  C3  1  0.248580  0.269473  0.513764  1.0
  C  C4  1  0.751420  0.769473  0.486236  1.0
  O  O5  1  0.199170  0.053831  0.382813  1.0
  O  O6  1  0.168953  0.469703  0.360816  1.0
  O  O7  1  0.367575  0.285183  0.803381  1.0
  O  O8  1  0.632425  0.785183  0.196619  1.0
  O  O9  1  0.800830  0.553831  0.617187  1.0
  O  O10  1  0.831047  0.969703  0.639184  1.0
