# generated using pymatgen
data_NbPSe
_symmetry_space_group_name_H-M   'P 1'
_cell_length_a   3.47928957
_cell_length_b   4.86044627
_cell_length_c   6.97321882
_cell_angle_alpha   110.39609005
_cell_angle_beta   104.44645612
_cell_angle_gamma   90.00000007
_symmetry_Int_Tables_number   1
_chemical_formula_structural   NbPSe
_chemical_formula_sum   'Nb2 P2 Se2'
_cell_volume   106.54327655
_cell_formula_units_Z   2
loop_
 _symmetry_equiv_pos_site_id
 _symmetry_equiv_pos_as_xyz
  1  'x, y, z'
loop_
 _atom_site_type_symbol
 _atom_site_label
 _atom_site_symmetry_multiplicity
 _atom_site_fract_x
 _atom_site_fract_y
 _atom_site_fract_z
 _atom_site_occupancy
  Nb  Nb1  1  0.884452  0.384452  0.768904  1.0
  Nb  Nb2  1  0.115548  0.615548  0.231096  1.0
  P  P3  1  0.500000  0.766117  0.000000  1.0
  P  P4  1  0.500000  0.233883  0.000000  1.0
  Se  Se5  1  0.213229  0.213229  0.426458  1.0
  Se  Se6  1  0.786771  0.786771  0.573542  1.0
