# generated using pymatgen
data_Na3PS3O
_symmetry_space_group_name_H-M   'P 1'
_cell_length_a   5.97102120
_cell_length_b   7.57406186
_cell_length_c   7.57406186
_cell_angle_alpha   101.10008759
_cell_angle_beta   90.00000000
_cell_angle_gamma   90.00000000
_symmetry_Int_Tables_number   1
_chemical_formula_structural   Na3PS3O
_chemical_formula_sum   'Na6 P2 S6 O2'
_cell_volume   336.12803040
_cell_formula_units_Z   2
loop_
 _symmetry_equiv_pos_site_id
 _symmetry_equiv_pos_as_xyz
  1  'x, y, z'
loop_
 _atom_site_type_symbol
 _atom_site_label
 _atom_site_symmetry_multiplicity
 _atom_site_fract_x
 _atom_site_fract_y
 _atom_site_fract_z
 _atom_site_occupancy
  Na  Na1  1  0.253291  0.084542  0.318364  1.0
  Na  Na2  1  0.705189  0.369106  0.630894  1.0
  Na  Na3  1  0.205189  0.630894  0.369106  1.0
  Na  Na4  1  0.253291  0.681636  0.915458  1.0
  Na  Na5  1  0.753291  0.915458  0.681636  1.0
  Na  Na6  1  0.753291  0.318364  0.084542  1.0
  P  P7  1  0.145570  0.205750  0.794250  1.0
  P  P8  1  0.645570  0.794250  0.205750  1.0
  S  S9  1  0.271162  0.954975  0.689248  1.0
  S  S10  1  0.231218  0.379091  0.620909  1.0
  S  S11  1  0.731218  0.620909  0.379091  1.0
  S  S12  1  0.771162  0.045025  0.310752  1.0
  S  S13  1  0.271162  0.310752  0.045025  1.0
  S  S14  1  0.771162  0.689248  0.954975  1.0
  O  O15  1  0.887216  0.196954  0.803046  1.0
  O  O16  1  0.387215  0.803046  0.196954  1.0
