# generated using pymatgen
data_Ga2HgSe4
_symmetry_space_group_name_H-M   'P 1'
_cell_length_a   5.88059431
_cell_length_b   5.88059432
_cell_length_c   6.90379691
_cell_angle_alpha   115.20736909
_cell_angle_beta   115.20736910
_cell_angle_gamma   89.99999997
_symmetry_Int_Tables_number   1
_chemical_formula_structural   Ga2HgSe4
_chemical_formula_sum   'Ga2 Hg1 Se4'
_cell_volume   190.57990756
_cell_formula_units_Z   1
loop_
 _symmetry_equiv_pos_site_id
 _symmetry_equiv_pos_as_xyz
  1  'x, y, z'
loop_
 _atom_site_type_symbol
 _atom_site_label
 _atom_site_symmetry_multiplicity
 _atom_site_fract_x
 _atom_site_fract_y
 _atom_site_fract_z
 _atom_site_occupancy
  Ga  Ga1  1  0.500000  0.500000  0.000000  1.0
  Ga  Ga2  1  0.250000  0.750000  0.500000  1.0
  Hg  Hg3  1  0.000000  0.000000  0.000000  1.0
  Se  Se4  1  0.864100  0.876179  0.278060  1.0
  Se  Se5  1  0.413960  0.401881  0.278060  1.0
  Se  Se6  1  0.123821  0.586040  0.721940  1.0
  Se  Se7  1  0.598119  0.135900  0.721940  1.0
