# generated using pymatgen
data_GaAgSe2
_symmetry_space_group_name_H-M   'P 1'
_cell_length_a   6.05996398
_cell_length_b   6.05996398
_cell_length_c   7.07923812
_cell_angle_alpha   115.34131161
_cell_angle_beta   115.34131158
_cell_angle_gamma   90.00000002
_symmetry_Int_Tables_number   1
_chemical_formula_structural   GaAgSe2
_chemical_formula_sum   'Ga2 Ag2 Se4'
_cell_volume   206.93765089
_cell_formula_units_Z   2
loop_
 _symmetry_equiv_pos_site_id
 _symmetry_equiv_pos_as_xyz
  1  'x, y, z'
loop_
 _atom_site_type_symbol
 _atom_site_label
 _atom_site_symmetry_multiplicity
 _atom_site_fract_x
 _atom_site_fract_y
 _atom_site_fract_z
 _atom_site_occupancy
  Ga  Ga1  1  0.500000  0.500000  0.000000  1.0
  Ga  Ga2  1  0.750000  0.250000  0.500000  1.0
  Ag  Ag3  1  0.250000  0.750000  0.500000  1.0
  Ag  Ag4  1  0.000000  0.000000  0.000000  1.0
  Se  Se5  1  0.845527  0.875000  0.250000  1.0
  Se  Se6  1  0.625000  0.154473  0.750000  1.0
  Se  Se7  1  0.404473  0.375000  0.250000  1.0
  Se  Se8  1  0.125000  0.595527  0.750000  1.0
