# generated using pymatgen
data_MgO
_symmetry_space_group_name_H-M   'P 1'
_cell_length_a   3.28595201
_cell_length_b   3.28591941
_cell_length_c   10.50313187
_cell_angle_alpha   90.00165869
_cell_angle_beta   89.99916998
_cell_angle_gamma   119.99967256
_symmetry_Int_Tables_number   1
_chemical_formula_structural   MgO
_chemical_formula_sum   'Mg4 O4'
_cell_volume   98.21300673
_cell_formula_units_Z   4
loop_
 _symmetry_equiv_pos_site_id
 _symmetry_equiv_pos_as_xyz
  1  'x, y, z'
loop_
 _atom_site_type_symbol
 _atom_site_label
 _atom_site_symmetry_multiplicity
 _atom_site_fract_x
 _atom_site_fract_y
 _atom_site_fract_z
 _atom_site_occupancy
  Mg  Mg1  1  0.333347  0.666715  0.969703  1.0
  Mg  Mg2  1  0.000017  0.000011  0.221030  1.0
  Mg  Mg3  1  0.999983  0.999995  0.721030  1.0
  Mg  Mg4  1  0.666653  0.333368  0.469703  1.0
  O  O5  1  0.333324  0.666672  0.779828  1.0
  O  O6  1  0.999992  0.000041  0.529438  1.0
  O  O7  1  0.000008  0.000051  0.029438  1.0
  O  O8  1  0.666676  0.333348  0.279828  1.0
