# generated using pymatgen
data_Zn2SbN3
_symmetry_space_group_name_H-M   'P 1'
_cell_length_a   5.83233022
_cell_length_b   5.82448429
_cell_length_c   5.46726600
_cell_angle_alpha   90.00000000
_cell_angle_beta   90.00000000
_cell_angle_gamma   119.95550941
_symmetry_Int_Tables_number   1
_chemical_formula_structural   Zn2SbN3
_chemical_formula_sum   'Zn4 Sb2 N6'
_cell_volume   160.91441338
_cell_formula_units_Z   2
loop_
 _symmetry_equiv_pos_site_id
 _symmetry_equiv_pos_as_xyz
  1  'x, y, z'
loop_
 _atom_site_type_symbol
 _atom_site_label
 _atom_site_symmetry_multiplicity
 _atom_site_fract_x
 _atom_site_fract_y
 _atom_site_fract_z
 _atom_site_occupancy
  Zn  Zn1  1  0.344299  0.834636  0.473205  1.0
  Zn  Zn2  1  0.655701  0.490337  0.473205  1.0
  Zn  Zn3  1  0.655701  0.165364  0.973205  1.0
  Zn  Zn4  1  0.344299  0.509663  0.973205  1.0
  Sb  Sb5  1  0.000000  0.821957  0.961588  1.0
  Sb  Sb6  1  0.000000  0.178043  0.461588  1.0
  N  N7  1  0.329873  0.832554  0.848296  1.0
  N  N8  1  0.670127  0.502680  0.848296  1.0
  N  N9  1  0.670127  0.167446  0.348296  1.0
  N  N10  1  0.329873  0.497320  0.348296  1.0
  N  N11  1  0.000000  0.841804  0.339791  1.0
  N  N12  1  0.000000  0.158196  0.839791  1.0
