# generated using pymatgen
data_RbGe2N3
_symmetry_space_group_name_H-M   'P 1'
_cell_length_a   5.92220406
_cell_length_b   6.08722208
_cell_length_c   5.38652812
_cell_angle_alpha   90.00000000
_cell_angle_beta   90.00000000
_cell_angle_gamma   120.92610125
_symmetry_Int_Tables_number   1
_chemical_formula_structural   RbGe2N3
_chemical_formula_sum   'Rb2 Ge4 N6'
_cell_volume   166.57626385
_cell_formula_units_Z   2
loop_
 _symmetry_equiv_pos_site_id
 _symmetry_equiv_pos_as_xyz
  1  'x, y, z'
loop_
 _atom_site_type_symbol
 _atom_site_label
 _atom_site_symmetry_multiplicity
 _atom_site_fract_x
 _atom_site_fract_y
 _atom_site_fract_z
 _atom_site_occupancy
  Rb  Rb1  1  0.000000  0.651894  0.480630  1.0
  Rb  Rb2  1  0.000000  0.348106  0.980630  1.0
  Ge  Ge3  1  0.347920  0.313604  0.493025  1.0
  Ge  Ge4  1  0.652080  0.965685  0.493025  1.0
  Ge  Ge5  1  0.652080  0.686396  0.993025  1.0
  Ge  Ge6  1  0.347920  0.034315  0.993025  1.0
  N  N7  1  0.481877  0.357667  0.825586  1.0
  N  N8  1  0.518123  0.875790  0.825586  1.0
  N  N9  1  0.518123  0.642333  0.325586  1.0
  N  N10  1  0.481877  0.124210  0.325586  1.0
  N  N11  1  0.000000  0.816257  0.970149  1.0
  N  N12  1  0.000000  0.183743  0.470149  1.0
