# generated using pymatgen
data_LiVN2
_symmetry_space_group_name_H-M   'P 1'
_cell_length_a   5.46863215
_cell_length_b   6.65077029
_cell_length_c   5.08226069
_cell_angle_alpha   90.00000000
_cell_angle_beta   90.00000000
_cell_angle_gamma   90.00000000
_symmetry_Int_Tables_number   1
_chemical_formula_structural   LiVN2
_chemical_formula_sum   'Li4 V4 N8'
_cell_volume   184.84495314
_cell_formula_units_Z   4
loop_
 _symmetry_equiv_pos_site_id
 _symmetry_equiv_pos_as_xyz
  1  'x, y, z'
loop_
 _atom_site_type_symbol
 _atom_site_label
 _atom_site_symmetry_multiplicity
 _atom_site_fract_x
 _atom_site_fract_y
 _atom_site_fract_z
 _atom_site_occupancy
  Li  Li1  1  0.582329  0.877108  0.991660  1.0
  Li  Li2  1  0.417671  0.122892  0.491660  1.0
  Li  Li3  1  0.917671  0.377108  0.491660  1.0
  Li  Li4  1  0.082329  0.622892  0.991660  1.0
  V  V5  1  0.573924  0.374710  0.004594  1.0
  V  V6  1  0.426076  0.625290  0.504594  1.0
  V  V7  1  0.926076  0.874710  0.504594  1.0
  V  V8  1  0.073924  0.125290  0.004594  1.0
  N  N9  1  0.553794  0.400709  0.357568  1.0
  N  N10  1  0.446205  0.599291  0.857568  1.0
  N  N11  1  0.946206  0.900709  0.857568  1.0
  N  N12  1  0.053795  0.099291  0.357568  1.0
  N  N13  1  0.605513  0.845477  0.416177  1.0
  N  N14  1  0.394487  0.154523  0.916177  1.0
  N  N15  1  0.894487  0.345477  0.916177  1.0
  N  N16  1  0.105513  0.654523  0.416177  1.0
