# generated using pymatgen
data_KAg2AsO4
_symmetry_space_group_name_H-M   'P 1'
_cell_length_a   5.57101001
_cell_length_b   5.57101001
_cell_length_c   5.57101001
_cell_angle_alpha   99.37156348
_cell_angle_beta   114.74508625
_cell_angle_gamma   114.74508618
_symmetry_Int_Tables_number   1
_chemical_formula_structural   KAg2AsO4
_chemical_formula_sum   'K1 Ag2 As1 O4'
_cell_volume   130.08001943
_cell_formula_units_Z   1
loop_
 _symmetry_equiv_pos_site_id
 _symmetry_equiv_pos_as_xyz
  1  'x, y, z'
loop_
 _atom_site_type_symbol
 _atom_site_label
 _atom_site_symmetry_multiplicity
 _atom_site_fract_x
 _atom_site_fract_y
 _atom_site_fract_z
 _atom_site_occupancy
  K  K1  1  0.000000  0.500000  0.500000  1.0
  Ag  Ag2  1  0.500000  0.750000  0.250000  1.0
  Ag  Ag3  1  0.500000  0.250000  0.750000  1.0
  As  As4  1  0.000000  0.000000  0.000000  1.0
  O  O5  1  0.000000  0.694425  0.030427  1.0
  O  O6  1  0.663998  0.969573  0.969573  1.0
  O  O7  1  0.336002  0.305575  0.305575  1.0
  O  O8  1  0.000000  0.030427  0.694425  1.0
