# generated using pymatgen
data_SrCN2
_symmetry_space_group_name_H-M   'P 1'
_cell_length_a   4.00736981
_cell_length_b   4.00736981
_cell_length_c   15.18259500
_cell_angle_alpha   90.00000000
_cell_angle_beta   90.00000000
_cell_angle_gamma   119.99999682
_symmetry_Int_Tables_number   1
_chemical_formula_structural   SrCN2
_chemical_formula_sum   'Sr3 C3 N6'
_cell_volume   211.15214470
_cell_formula_units_Z   3
loop_
 _symmetry_equiv_pos_site_id
 _symmetry_equiv_pos_as_xyz
  1  'x, y, z'
loop_
 _atom_site_type_symbol
 _atom_site_label
 _atom_site_symmetry_multiplicity
 _atom_site_fract_x
 _atom_site_fract_y
 _atom_site_fract_z
 _atom_site_occupancy
  Sr  Sr1  1  0.333333  0.666667  0.166667  1.0
  Sr  Sr2  1  0.000000  0.000000  0.500000  1.0
  Sr  Sr3  1  0.666667  0.333333  0.833333  1.0
  C  C4  1  0.000000  0.000000  0.000000  1.0
  C  C5  1  0.666667  0.333333  0.333333  1.0
  C  C6  1  0.333333  0.666667  0.666667  1.0
  N  N7  1  0.666667  0.333333  0.251707  1.0
  N  N8  1  0.000000  0.000000  0.081626  1.0
  N  N9  1  0.333333  0.666667  0.585041  1.0
  N  N10  1  0.666667  0.333333  0.414959  1.0
  N  N11  1  0.000000  0.000000  0.918374  1.0
  N  N12  1  0.333333  0.666667  0.748293  1.0
