# generated using pymatgen
data_K2GeF6
_symmetry_space_group_name_H-M   'P 1'
_cell_length_a   5.85285723
_cell_length_b   5.85285723
_cell_length_c   9.55239966
_cell_angle_alpha   90.00000000
_cell_angle_beta   90.00000000
_cell_angle_gamma   119.99999994
_symmetry_Int_Tables_number   1
_chemical_formula_structural   K2GeF6
_chemical_formula_sum   'K4 Ge2 F12'
_cell_volume   283.38638243
_cell_formula_units_Z   2
loop_
 _symmetry_equiv_pos_site_id
 _symmetry_equiv_pos_as_xyz
  1  'x, y, z'
loop_
 _atom_site_type_symbol
 _atom_site_label
 _atom_site_symmetry_multiplicity
 _atom_site_fract_x
 _atom_site_fract_y
 _atom_site_fract_z
 _atom_site_occupancy
  K  K1  1  0.000000  0.000000  0.094332  1.0
  K  K2  1  0.000000  0.000000  0.594332  1.0
  K  K3  1  0.666667  0.333333  0.371188  1.0
  K  K4  1  0.333333  0.666667  0.871188  1.0
  Ge  Ge5  1  0.666667  0.333333  0.757714  1.0
  Ge  Ge6  1  0.333333  0.666667  0.257714  1.0
  F  F7  1  0.519761  0.480239  0.644976  1.0
  F  F8  1  0.039522  0.519761  0.144976  1.0
  F  F9  1  0.480239  0.960478  0.144976  1.0
  F  F10  1  0.519761  0.039522  0.644976  1.0
  F  F11  1  0.960478  0.480239  0.644976  1.0
  F  F12  1  0.480239  0.519761  0.144976  1.0
  F  F13  1  0.182640  0.817360  0.363946  1.0
  F  F14  1  0.365280  0.182640  0.863946  1.0
  F  F15  1  0.817360  0.634720  0.863946  1.0
  F  F16  1  0.182640  0.365280  0.363946  1.0
  F  F17  1  0.634720  0.817360  0.363946  1.0
  F  F18  1  0.817360  0.182640  0.863946  1.0
