# generated using pymatgen
data_NaGe2N3
_symmetry_space_group_name_H-M   'P 1'
_cell_length_a   5.18649745
_cell_length_b   5.77263261
_cell_length_c   5.77263261
_cell_angle_alpha   119.16635127
_cell_angle_beta   90.00000000
_cell_angle_gamma   90.00000000
_symmetry_Int_Tables_number   1
_chemical_formula_structural   NaGe2N3
_chemical_formula_sum   'Na2 Ge4 N6'
_cell_volume   150.91761351
_cell_formula_units_Z   2
loop_
 _symmetry_equiv_pos_site_id
 _symmetry_equiv_pos_as_xyz
  1  'x, y, z'
loop_
 _atom_site_type_symbol
 _atom_site_label
 _atom_site_symmetry_multiplicity
 _atom_site_fract_x
 _atom_site_fract_y
 _atom_site_fract_z
 _atom_site_occupancy
  Na  Na1  1  0.495287  0.661308  0.661308  1.0
  Na  Na2  1  0.995287  0.338692  0.338692  1.0
  Ge  Ge3  1  0.024463  0.011683  0.675872  1.0
  Ge  Ge4  1  0.524463  0.988317  0.324128  1.0
  Ge  Ge5  1  0.524463  0.324128  0.988317  1.0
  Ge  Ge6  1  0.024463  0.675872  0.011683  1.0
  N  N7  1  0.954346  0.742036  0.742036  1.0
  N  N8  1  0.454346  0.257964  0.257964  1.0
  N  N9  1  0.379721  0.658660  0.076044  1.0
  N  N10  1  0.379721  0.076044  0.658660  1.0
  N  N11  1  0.879721  0.923956  0.341340  1.0
  N  N12  1  0.879721  0.341340  0.923956  1.0
