# generated using pymatgen
data_Na3Cd
_symmetry_space_group_name_H-M   'P 1'
_cell_length_a   7.06091034
_cell_length_b   7.06091012
_cell_length_c   5.66851699
_cell_angle_alpha   90.00000000
_cell_angle_beta   90.00000000
_cell_angle_gamma   120.00000101
_symmetry_Int_Tables_number   1
_chemical_formula_structural   Na3Cd
_chemical_formula_sum   'Na6 Cd2'
_cell_volume   244.74930095
_cell_formula_units_Z   2
loop_
 _symmetry_equiv_pos_site_id
 _symmetry_equiv_pos_as_xyz
  1  'x, y, z'
loop_
 _atom_site_type_symbol
 _atom_site_label
 _atom_site_symmetry_multiplicity
 _atom_site_fract_x
 _atom_site_fract_y
 _atom_site_fract_z
 _atom_site_occupancy
  Na  Na1  1  0.171287  0.342574  0.250000  1.0
  Na  Na2  1  0.657425  0.828712  0.250000  1.0
  Na  Na3  1  0.171287  0.828712  0.250000  1.0
  Na  Na4  1  0.828713  0.657425  0.749999  1.0
  Na  Na5  1  0.342575  0.171287  0.749999  1.0
  Na  Na6  1  0.828712  0.171287  0.749999  1.0
  Cd  Cd7  1  0.333334  0.666668  0.749999  1.0
  Cd  Cd8  1  0.666666  0.333332  0.250000  1.0
