# generated using pymatgen
data_BeSiN2
_symmetry_space_group_name_H-M   'P 1'
_cell_length_a   4.07299360
_cell_length_b   4.07299360
_cell_length_c   4.99615288
_cell_angle_alpha   114.05497429
_cell_angle_beta   114.05497426
_cell_angle_gamma   90.00000003
_symmetry_Int_Tables_number   1
_chemical_formula_structural   BeSiN2
_chemical_formula_sum   'Be2 Si2 N4'
_cell_volume   67.72592385
_cell_formula_units_Z   2
loop_
 _symmetry_equiv_pos_site_id
 _symmetry_equiv_pos_as_xyz
  1  'x, y, z'
loop_
 _atom_site_type_symbol
 _atom_site_label
 _atom_site_symmetry_multiplicity
 _atom_site_fract_x
 _atom_site_fract_y
 _atom_site_fract_z
 _atom_site_occupancy
  Be  Be1  1  0.000000  0.000000  0.000000  1.0
  Be  Be2  1  0.250000  0.750000  0.500000  1.0
  Si  Si3  1  0.500000  0.500000  0.000000  1.0
  Si  Si4  1  0.750000  0.250000  0.500000  1.0
  N  N5  1  0.379493  0.375000  0.250000  1.0
  N  N6  1  0.870507  0.875000  0.250000  1.0
  N  N7  1  0.125000  0.620507  0.750000  1.0
  N  N8  1  0.625000  0.129493  0.750000  1.0
