# generated using pymatgen
data_NaH2N
_symmetry_space_group_name_H-M   'P 1'
_cell_length_a   5.97023462
_cell_length_b   5.97023463
_cell_length_c   6.91317630
_cell_angle_alpha   114.03555691
_cell_angle_beta   114.03555692
_cell_angle_gamma   93.25234175
_symmetry_Int_Tables_number   1
_chemical_formula_structural   NaH2N
_chemical_formula_sum   'Na4 H8 N4'
_cell_volume   198.07617023
_cell_formula_units_Z   4
loop_
 _symmetry_equiv_pos_site_id
 _symmetry_equiv_pos_as_xyz
  1  'x, y, z'
loop_
 _atom_site_type_symbol
 _atom_site_label
 _atom_site_symmetry_multiplicity
 _atom_site_fract_x
 _atom_site_fract_y
 _atom_site_fract_z
 _atom_site_occupancy
  Na  Na1  1  0.114881  0.614881  0.229762  1.0
  Na  Na2  1  0.385119  0.885119  0.770238  1.0
  Na  Na3  1  0.135119  0.135119  0.270238  1.0
  Na  Na4  1  0.864881  0.864881  0.729762  1.0
  H  H5  1  0.564121  0.951391  0.386348  1.0
  H  H6  1  0.565044  0.177774  0.613653  1.0
  H  H7  1  0.048609  0.435879  0.613653  1.0
  H  H8  1  0.822226  0.434956  0.386348  1.0
  H  H9  1  0.685879  0.798609  0.113653  1.0
  H  H10  1  0.427774  0.315044  0.113653  1.0
  H  H11  1  0.201391  0.314121  0.886347  1.0
  H  H12  1  0.684956  0.572226  0.886347  1.0
  N  N13  1  0.235288  0.235288  0.000000  1.0
  N  N14  1  0.014712  0.514712  0.500000  1.0
  N  N15  1  0.764712  0.764712  0.000000  1.0
  N  N16  1  0.485288  0.985288  0.500000  1.0
