# generated using pymatgen
data_Li14P2(N2O)3
_symmetry_space_group_name_H-M   'P 1'
_cell_length_a   5.69859342
_cell_length_b   5.69868284
_cell_length_c   8.07204018
_cell_angle_alpha   89.99941229
_cell_angle_beta   90.00130048
_cell_angle_gamma   119.99879914
_symmetry_Int_Tables_number   1
_chemical_formula_structural   Li14P2(N2O)3
_chemical_formula_sum   'Li14 P2 N6 O3'
_cell_volume   227.01855813
_cell_formula_units_Z   1
loop_
 _symmetry_equiv_pos_site_id
 _symmetry_equiv_pos_as_xyz
  1  'x, y, z'
loop_
 _atom_site_type_symbol
 _atom_site_label
 _atom_site_symmetry_multiplicity
 _atom_site_fract_x
 _atom_site_fract_y
 _atom_site_fract_z
 _atom_site_occupancy
  Li  Li1  1  0.378403  0.082663  0.091007  1.0
  Li  Li2  1  0.704271  0.621615  0.091003  1.0
  Li  Li3  1  0.917356  0.295753  0.091010  1.0
  Li  Li4  1  0.621597  0.917337  0.908993  1.0
  Li  Li5  1  0.295729  0.378385  0.908997  1.0
  Li  Li6  1  0.082644  0.704247  0.908990  1.0
  Li  Li7  1  0.042901  0.352696  0.589177  1.0
  Li  Li8  1  0.309792  0.957093  0.589167  1.0
  Li  Li9  1  0.647297  0.690204  0.589169  1.0
  Li  Li10  1  0.957099  0.647304  0.410823  1.0
  Li  Li11  1  0.690208  0.042907  0.410833  1.0
  Li  Li12  1  0.352703  0.309796  0.410831  1.0
  Li  Li13  1  0.000014  0.000014  0.249699  1.0
  Li  Li14  1  0.999986  0.999986  0.750301  1.0
  P  P15  1  0.666630  0.333322  0.774089  1.0
  P  P16  1  0.333370  0.666678  0.225911  1.0
  N  N17  1  0.376842  0.071219  0.825801  1.0
  N  N18  1  0.694351  0.623131  0.825798  1.0
  N  N19  1  0.928752  0.305617  0.825802  1.0
  N  N20  1  0.623158  0.928781  0.174199  1.0
  N  N21  1  0.305649  0.376869  0.174202  1.0
  N  N22  1  0.071248  0.694383  0.174198  1.0
  O  O23  1  0.666659  0.333326  0.553646  1.0
  O  O24  1  0.333342  0.666674  0.446354  1.0
  O  O25  1  0.000000  0.000000  0.500000  1.0
