# generated using pymatgen
data_Li2(NiO2)3
_symmetry_space_group_name_H-M   'P 1'
_cell_length_a   5.83294845
_cell_length_b   2.86555223
_cell_length_c   6.51014501
_cell_angle_alpha   77.95461306
_cell_angle_beta   106.22150649
_cell_angle_gamma   92.50474294
_symmetry_Int_Tables_number   1
_chemical_formula_structural   Li2(NiO2)3
_chemical_formula_sum   'Li2 Ni3 O6'
_cell_volume   102.16978399
_cell_formula_units_Z   1
loop_
 _symmetry_equiv_pos_site_id
 _symmetry_equiv_pos_as_xyz
  1  'x, y, z'
loop_
 _atom_site_type_symbol
 _atom_site_label
 _atom_site_symmetry_multiplicity
 _atom_site_fract_x
 _atom_site_fract_y
 _atom_site_fract_z
 _atom_site_occupancy
  Li  Li1  1  0.807718  0.338363  0.310602  1.0
  Li  Li2  1  0.192256  0.661681  0.689349  1.0
  Ni  Ni3  1  0.999990  0.999998  0.000002  1.0
  Ni  Ni4  1  0.332409  0.341545  0.331252  1.0
  Ni  Ni5  1  0.667604  0.658441  0.668762  1.0
  O  O6  1  0.215306  0.509235  0.017859  1.0
  O  O7  1  0.085678  0.884663  0.307170  1.0
  O  O8  1  0.424618  0.202913  0.640154  1.0
  O  O9  1  0.575399  0.797062  0.359862  1.0
  O  O10  1  0.914330  0.115339  0.692841  1.0
  O  O11  1  0.784692  0.490761  0.982147  1.0
