# generated using pymatgen
data_V2O3F
_symmetry_space_group_name_H-M   'P 1'
_cell_length_a   5.59262530
_cell_length_b   5.59262530
_cell_length_c   5.59262530
_cell_angle_alpha   69.94340342
_cell_angle_beta   103.75564771
_cell_angle_gamma   65.21148172
_symmetry_Int_Tables_number   1
_chemical_formula_structural   V2O3F
_chemical_formula_sum   'V4 O6 F2'
_cell_volume   133.41011096
_cell_formula_units_Z   2
loop_
 _symmetry_equiv_pos_site_id
 _symmetry_equiv_pos_as_xyz
  1  'x, y, z'
loop_
 _atom_site_type_symbol
 _atom_site_label
 _atom_site_symmetry_multiplicity
 _atom_site_fract_x
 _atom_site_fract_y
 _atom_site_fract_z
 _atom_site_occupancy
  V  V1  1  0.795500  0.750000  0.545500  1.0
  V  V2  1  0.204500  0.250000  0.454500  1.0
  V  V3  1  0.000000  0.000000  0.000000  1.0
  V  V4  1  0.500000  0.500000  0.000000  1.0
  O  O5  1  0.055139  0.750000  0.805139  1.0
  O  O6  1  0.000000  0.307815  0.692185  1.0
  O  O7  1  0.500000  0.807815  0.692185  1.0
  O  O8  1  0.500000  0.192185  0.307815  1.0
  O  O9  1  0.000000  0.692185  0.307815  1.0
  O  O10  1  0.944861  0.250000  0.194861  1.0
  F  F11  1  0.548524  0.250000  0.798524  1.0
  F  F12  1  0.451476  0.750000  0.201476  1.0
