# generated using pymatgen
data_LiMnCoO4
_symmetry_space_group_name_H-M   'P 1'
_cell_length_a   5.88987835
_cell_length_b   5.88987902
_cell_length_c   5.88987835
_cell_angle_alpha   92.55541293
_cell_angle_beta   121.18919180
_cell_angle_gamma   58.21590270
_symmetry_Int_Tables_number   1
_chemical_formula_structural   LiMnCoO4
_chemical_formula_sum   'Li2 Mn2 Co2 O8'
_cell_volume   141.07472254
_cell_formula_units_Z   2
loop_
 _symmetry_equiv_pos_site_id
 _symmetry_equiv_pos_as_xyz
  1  'x, y, z'
loop_
 _atom_site_type_symbol
 _atom_site_label
 _atom_site_symmetry_multiplicity
 _atom_site_fract_x
 _atom_site_fract_y
 _atom_site_fract_z
 _atom_site_occupancy
  Li  Li1  1  0.750000  0.134636  0.615364  1.0
  Li  Li2  1  0.250000  0.865364  0.384636  1.0
  Mn  Mn3  1  0.500000  0.500000  0.000000  1.0
  Mn  Mn4  1  0.000000  0.500000  0.500000  1.0
  Co  Co5  1  0.500000  0.000000  0.000000  1.0
  Co  Co6  1  0.000000  0.500000  0.000000  1.0
  O  O7  1  0.528155  0.728725  0.799430  1.0
  O  O8  1  0.971845  0.728725  0.243119  1.0
  O  O9  1  0.972926  0.277572  0.249502  1.0
  O  O10  1  0.527074  0.723423  0.249502  1.0
  O  O11  1  0.472926  0.276577  0.750498  1.0
  O  O12  1  0.027074  0.722428  0.750498  1.0
  O  O13  1  0.028155  0.271275  0.756881  1.0
  O  O14  1  0.471845  0.271275  0.200570  1.0
