# generated using pymatgen
data_CuBSe2
_symmetry_space_group_name_H-M   'P 1'
_cell_length_a   5.32905076
_cell_length_b   5.32625574
_cell_length_c   6.15046061
_cell_angle_alpha   115.68825040
_cell_angle_beta   115.69415182
_cell_angle_gamma   89.93976652
_symmetry_Int_Tables_number   1
_chemical_formula_structural   CuBSe2
_chemical_formula_sum   'Cu2 B2 Se4'
_cell_volume   137.95914057
_cell_formula_units_Z   2
loop_
 _symmetry_equiv_pos_site_id
 _symmetry_equiv_pos_as_xyz
  1  'x, y, z'
loop_
 _atom_site_type_symbol
 _atom_site_label
 _atom_site_symmetry_multiplicity
 _atom_site_fract_x
 _atom_site_fract_y
 _atom_site_fract_z
 _atom_site_occupancy
  Cu  Cu1  1  0.000037  0.000075  0.000131  1.0
  Cu  Cu2  1  0.250112  0.750104  0.500160  1.0
  B  B3  1  0.500015  0.500029  0.000035  1.0
  B  B4  1  0.750042  0.250031  0.500048  1.0
  Se  Se5  1  0.827433  0.874826  0.249921  1.0
  Se  Se6  1  0.422494  0.375064  0.249924  1.0
  Se  Se7  1  0.625044  0.172451  0.749895  1.0
  Se  Se8  1  0.124827  0.577422  0.749887  1.0
