# generated using pymatgen
data_V2O3F
_symmetry_space_group_name_H-M   'P 1'
_cell_length_a   4.68608716
_cell_length_b   5.56549454
_cell_length_c   5.56549454
_cell_angle_alpha   114.76037256
_cell_angle_beta   91.54476362
_cell_angle_gamma   88.45523638
_symmetry_Int_Tables_number   1
_chemical_formula_structural   V2O3F
_chemical_formula_sum   'V4 O6 F2'
_cell_volume   131.73870513
_cell_formula_units_Z   2
loop_
 _symmetry_equiv_pos_site_id
 _symmetry_equiv_pos_as_xyz
  1  'x, y, z'
loop_
 _atom_site_type_symbol
 _atom_site_label
 _atom_site_symmetry_multiplicity
 _atom_site_fract_x
 _atom_site_fract_y
 _atom_site_fract_z
 _atom_site_occupancy
  V  V1  1  0.500000  0.000000  0.500000  1.0
  V  V2  1  0.500000  0.500000  0.000000  1.0
  V  V3  1  0.000000  0.500000  0.500000  1.0
  V  V4  1  0.000000  0.000000  0.000000  1.0
  O  O5  1  0.805187  0.154831  0.345169  1.0
  O  O6  1  0.693346  0.151676  0.843053  1.0
  O  O7  1  0.693346  0.656947  0.348324  1.0
  O  O8  1  0.306654  0.848324  0.156947  1.0
  O  O9  1  0.306654  0.343053  0.651676  1.0
  O  O10  1  0.194813  0.845169  0.654831  1.0
  F  F11  1  0.795631  0.649197  0.850803  1.0
  F  F12  1  0.204369  0.350803  0.149197  1.0
