# generated using pymatgen
data_Fe2OF3
_symmetry_space_group_name_H-M   'P 1'
_cell_length_a   4.85121745
_cell_length_b   9.68896526
_cell_length_c   3.10580817
_cell_angle_alpha   90.00000000
_cell_angle_beta   90.00000000
_cell_angle_gamma   90.00000000
_symmetry_Int_Tables_number   1
_chemical_formula_structural   Fe2OF3
_chemical_formula_sum   'Fe4 O2 F6'
_cell_volume   145.98316278
_cell_formula_units_Z   2
loop_
 _symmetry_equiv_pos_site_id
 _symmetry_equiv_pos_as_xyz
  1  'x, y, z'
loop_
 _atom_site_type_symbol
 _atom_site_label
 _atom_site_symmetry_multiplicity
 _atom_site_fract_x
 _atom_site_fract_y
 _atom_site_fract_z
 _atom_site_occupancy
  Fe  Fe1  1  0.032006  0.987006  0.000000  1.0
  Fe  Fe2  1  0.976702  0.495184  0.000000  1.0
  Fe  Fe3  1  0.532006  0.262994  0.500000  1.0
  Fe  Fe4  1  0.476702  0.754816  0.500000  1.0
  O  O5  1  0.191538  0.909274  0.500000  1.0
  O  O6  1  0.691538  0.340726  0.000000  1.0
  F  F7  1  0.202148  0.392598  0.500000  1.0
  F  F8  1  0.303549  0.153562  0.000000  1.0
  F  F9  1  0.294058  0.645026  0.000000  1.0
  F  F10  1  0.702148  0.857402  0.000000  1.0
  F  F11  1  0.794058  0.604974  0.500000  1.0
  F  F12  1  0.803549  0.096438  0.500000  1.0
