# generated using pymatgen
data_Li4MnOF5
_symmetry_space_group_name_H-M   'P 1'
_cell_length_a   3.80529220
_cell_length_b   5.31353054
_cell_length_c   6.76181848
_cell_angle_alpha   74.43295612
_cell_angle_beta   106.34992611
_cell_angle_gamma   69.01951219
_symmetry_Int_Tables_number   1
_chemical_formula_structural   Li4MnOF5
_chemical_formula_sum   'Li4 Mn1 O1 F5'
_cell_volume   111.61292916
_cell_formula_units_Z   1
loop_
 _symmetry_equiv_pos_site_id
 _symmetry_equiv_pos_as_xyz
  1  'x, y, z'
loop_
 _atom_site_type_symbol
 _atom_site_label
 _atom_site_symmetry_multiplicity
 _atom_site_fract_x
 _atom_site_fract_y
 _atom_site_fract_z
 _atom_site_occupancy
  Li  Li1  1  0.351934  0.993445  0.699680  1.0
  Li  Li2  1  0.773914  0.578351  0.125882  1.0
  Li  Li3  1  0.643030  0.004561  0.293873  1.0
  Li  Li4  1  0.226446  0.421253  0.872574  1.0
  Mn  Mn5  1  0.499371  0.498422  0.498566  1.0
  O  O6  1  0.996859  0.499853  0.495098  1.0
  F  F7  1  0.497559  0.000089  0.996367  1.0
  F  F8  1  0.362512  0.446984  0.172367  1.0
  F  F9  1  0.776616  0.070452  0.626393  1.0
  F  F10  1  0.636286  0.550670  0.822817  1.0
  F  F11  1  0.219938  0.926679  0.369400  1.0
