# generated using pymatgen
data_CoTeO4
_symmetry_space_group_name_H-M   'P 1'
_cell_length_a   5.19262870
_cell_length_b   10.32260168
_cell_length_c   9.84885154
_cell_angle_alpha   17.43505207
_cell_angle_beta   31.24906320
_cell_angle_gamma   35.34950311
_symmetry_Int_Tables_number   1
_chemical_formula_structural   CoTeO4
_chemical_formula_sum   'Co1 Te1 O4'
_cell_volume   82.05503850
_cell_formula_units_Z   1
loop_
 _symmetry_equiv_pos_site_id
 _symmetry_equiv_pos_as_xyz
  1  'x, y, z'
loop_
 _atom_site_type_symbol
 _atom_site_label
 _atom_site_symmetry_multiplicity
 _atom_site_fract_x
 _atom_site_fract_y
 _atom_site_fract_z
 _atom_site_occupancy
  Co  Co1  1  0.500000  0.499999  0.500000  1.0
  Te  Te2  1  0.499999  0.000000  0.500001  1.0
  O  O3  1  0.177676  0.000052  0.253059  1.0
  O  O4  1  0.296234  0.500059  0.214617  1.0
  O  O5  1  0.822324  0.999946  0.746941  1.0
  O  O6  1  0.703767  0.499942  0.785381  1.0
