# generated using pymatgen
data_FeHO2
_symmetry_space_group_name_H-M   'P 1'
_cell_length_a   4.01510093
_cell_length_b   6.53326274
_cell_length_c   6.57843900
_cell_angle_alpha   152.45395151
_cell_angle_beta   90.00000000
_cell_angle_gamma   90.00000000
_symmetry_Int_Tables_number   1
_chemical_formula_structural   FeHO2
_chemical_formula_sum   'Fe2 H2 O4'
_cell_volume   79.80404190
_cell_formula_units_Z   2
loop_
 _symmetry_equiv_pos_site_id
 _symmetry_equiv_pos_as_xyz
  1  'x, y, z'
loop_
 _atom_site_type_symbol
 _atom_site_label
 _atom_site_symmetry_multiplicity
 _atom_site_fract_x
 _atom_site_fract_y
 _atom_site_fract_z
 _atom_site_occupancy
  Fe  Fe1  1  0.250000  0.823112  0.183675  1.0
  Fe  Fe2  1  0.750000  0.176888  0.816325  1.0
  H  H3  1  0.250000  0.512467  0.518147  1.0
  H  H4  1  0.750000  0.487533  0.481853  1.0
  O  O5  1  0.250000  0.210989  0.785266  1.0
  O  O6  1  0.750000  0.789011  0.214734  1.0
  O  O7  1  0.250000  0.429487  0.589201  1.0
  O  O8  1  0.750000  0.570513  0.410799  1.0
