# generated using pymatgen
data_Li5SbS4
_symmetry_space_group_name_H-M   'P 1'
_cell_length_a   3.91521956
_cell_length_b   7.89323469
_cell_length_c   7.14341940
_cell_angle_alpha   62.74820527
_cell_angle_beta   90.00000000
_cell_angle_gamma   75.64014605
_symmetry_Int_Tables_number   1
_chemical_formula_structural   Li5SbS4
_chemical_formula_sum   'Li5 Sb1 S4'
_cell_volume   188.46311589
_cell_formula_units_Z   1
loop_
 _symmetry_equiv_pos_site_id
 _symmetry_equiv_pos_as_xyz
  1  'x, y, z'
loop_
 _atom_site_type_symbol
 _atom_site_label
 _atom_site_symmetry_multiplicity
 _atom_site_fract_x
 _atom_site_fract_y
 _atom_site_fract_z
 _atom_site_occupancy
  Li  Li1  1  0.176424  0.647150  0.959289  1.0
  Li  Li2  1  0.179486  0.641029  0.385358  1.0
  Li  Li3  1  0.820514  0.358971  0.614642  1.0
  Li  Li4  1  0.823576  0.352850  0.040711  1.0
  Li  Li5  1  0.500000  0.000000  0.500000  1.0
  Sb  Sb6  1  0.500000  0.000000  0.000000  1.0
  S  S7  1  0.002158  0.995684  0.272604  1.0
  S  S8  1  0.710395  0.579209  0.208610  1.0
  S  S9  1  0.289605  0.420791  0.791390  1.0
  S  S10  1  0.997842  0.004316  0.727396  1.0
