# generated using pymatgen
data_Dy2Ge2O7
_symmetry_space_group_name_H-M   'P 1'
_cell_length_a   5.80222107
_cell_length_b   5.80222107
_cell_length_c   5.01305189
_cell_angle_alpha   82.57376656
_cell_angle_beta   97.42623344
_cell_angle_gamma   74.70859740
_symmetry_Int_Tables_number   1
_chemical_formula_structural   Dy2Ge2O7
_chemical_formula_sum   'Dy2 Ge2 O7'
_cell_volume   159.05680280
_cell_formula_units_Z   1
loop_
 _symmetry_equiv_pos_site_id
 _symmetry_equiv_pos_as_xyz
  1  'x, y, z'
loop_
 _atom_site_type_symbol
 _atom_site_label
 _atom_site_symmetry_multiplicity
 _atom_site_fract_x
 _atom_site_fract_y
 _atom_site_fract_z
 _atom_site_occupancy
  Dy  Dy1  1  0.697581  0.697581  0.000000  1.0
  Dy  Dy2  1  0.310179  0.310179  0.000000  1.0
  Ge  Ge3  1  0.234530  0.776018  0.408816  1.0
  Ge  Ge4  1  0.776018  0.234530  0.591184  1.0
  O  O5  1  0.084985  0.608699  0.212323  1.0
  O  O6  1  0.405465  0.921376  0.212362  1.0
  O  O7  1  0.402217  0.604471  0.723947  1.0
  O  O8  1  0.015296  0.015296  0.500000  1.0
  O  O9  1  0.604471  0.402217  0.276053  1.0
  O  O10  1  0.921376  0.405465  0.787638  1.0
  O  O11  1  0.608699  0.084985  0.787677  1.0
