# generated using pymatgen
data_FeO2F
_symmetry_space_group_name_H-M   'P 1'
_cell_length_a   5.02988456
_cell_length_b   4.86860605
_cell_length_c   5.02988473
_cell_angle_alpha   113.51900163
_cell_angle_beta   58.15373105
_cell_angle_gamma   113.51900361
_symmetry_Int_Tables_number   1
_chemical_formula_structural   FeO2F
_chemical_formula_sum   'Fe2 O4 F2'
_cell_volume   93.08878039
_cell_formula_units_Z   2
loop_
 _symmetry_equiv_pos_site_id
 _symmetry_equiv_pos_as_xyz
  1  'x, y, z'
loop_
 _atom_site_type_symbol
 _atom_site_label
 _atom_site_symmetry_multiplicity
 _atom_site_fract_x
 _atom_site_fract_y
 _atom_site_fract_z
 _atom_site_occupancy
  Fe  Fe1  1  0.000000  0.000000  0.000000  1.0
  Fe  Fe2  1  0.500000  0.500000  0.500000  1.0
  O  O3  1  0.135320  0.626100  0.940582  1.0
  O  O4  1  0.559418  0.873900  0.364680  1.0
  O  O5  1  0.440582  0.126100  0.635320  1.0
  O  O6  1  0.864680  0.373900  0.059418  1.0
  F  F7  1  0.202841  0.250000  0.297159  1.0
  F  F8  1  0.797159  0.750000  0.702841  1.0
