# generated using pymatgen
data_SbOF
_symmetry_space_group_name_H-M   'P 1'
_cell_length_a   6.76915945
_cell_length_b   8.26716063
_cell_length_c   3.45908251
_cell_angle_alpha   90.00000000
_cell_angle_beta   90.00000000
_cell_angle_gamma   90.00000000
_symmetry_Int_Tables_number   1
_chemical_formula_structural   SbOF
_chemical_formula_sum   'Sb4 O4 F4'
_cell_volume   193.57623629
_cell_formula_units_Z   4
loop_
 _symmetry_equiv_pos_site_id
 _symmetry_equiv_pos_as_xyz
  1  'x, y, z'
loop_
 _atom_site_type_symbol
 _atom_site_label
 _atom_site_symmetry_multiplicity
 _atom_site_fract_x
 _atom_site_fract_y
 _atom_site_fract_z
 _atom_site_occupancy
  Sb  Sb1  1  0.192119  0.925151  0.750000  1.0
  Sb  Sb2  1  0.307881  0.425151  0.250000  1.0
  Sb  Sb3  1  0.692119  0.574849  0.750000  1.0
  Sb  Sb4  1  0.807881  0.074849  0.250000  1.0
  O  O5  1  0.003231  0.119957  0.750000  1.0
  O  O6  1  0.496769  0.619957  0.250000  1.0
  O  O7  1  0.503231  0.380043  0.750000  1.0
  O  O8  1  0.996769  0.880043  0.250000  1.0
  F  F9  1  0.170245  0.573571  0.750000  1.0
  F  F10  1  0.329755  0.073571  0.250000  1.0
  F  F11  1  0.670245  0.926429  0.750000  1.0
  F  F12  1  0.829755  0.426429  0.250000  1.0
