# generated using pymatgen
data_BaMgH4
_symmetry_space_group_name_H-M   'P 1'
_cell_length_a   7.20063043
_cell_length_b   7.20063043
_cell_length_c   5.70762147
_cell_angle_alpha   90.00000000
_cell_angle_beta   90.00000000
_cell_angle_gamma   33.91260962
_symmetry_Int_Tables_number   1
_chemical_formula_structural   BaMgH4
_chemical_formula_sum   'Ba2 Mg2 H8'
_cell_volume   165.11030496
_cell_formula_units_Z   2
loop_
 _symmetry_equiv_pos_site_id
 _symmetry_equiv_pos_as_xyz
  1  'x, y, z'
loop_
 _atom_site_type_symbol
 _atom_site_label
 _atom_site_symmetry_multiplicity
 _atom_site_fract_x
 _atom_site_fract_y
 _atom_site_fract_z
 _atom_site_occupancy
  Ba  Ba1  1  0.362573  0.362573  0.250000  1.0
  Ba  Ba2  1  0.637427  0.637427  0.750000  1.0
  Mg  Mg3  1  0.094975  0.094975  0.250000  1.0
  Mg  Mg4  1  0.905025  0.905025  0.750000  1.0
  H  H5  1  0.188887  0.188887  0.490378  1.0
  H  H6  1  0.811113  0.811113  0.509622  1.0
  H  H7  1  0.188887  0.188887  0.009622  1.0
  H  H8  1  0.811113  0.811113  0.990378  1.0
  H  H9  1  0.581036  0.581036  0.250000  1.0
  H  H10  1  0.418964  0.418964  0.750000  1.0
  H  H11  1  0.000000  0.000000  0.500000  1.0
  H  H12  1  0.000000  0.000000  0.000000  1.0
