# generated using pymatgen
data_HgH2NCl
_symmetry_space_group_name_H-M   'P 1'
_cell_length_a   6.81105339
_cell_length_b   4.49075558
_cell_length_c   5.10416018
_cell_angle_alpha   90.00000000
_cell_angle_beta   90.00000000
_cell_angle_gamma   90.00000000
_symmetry_Int_Tables_number   1
_chemical_formula_structural   HgH2NCl
_chemical_formula_sum   'Hg2 H4 N2 Cl2'
_cell_volume   156.11980418
_cell_formula_units_Z   2
loop_
 _symmetry_equiv_pos_site_id
 _symmetry_equiv_pos_as_xyz
  1  'x, y, z'
loop_
 _atom_site_type_symbol
 _atom_site_label
 _atom_site_symmetry_multiplicity
 _atom_site_fract_x
 _atom_site_fract_y
 _atom_site_fract_z
 _atom_site_occupancy
  Hg  Hg1  1  0.500000  0.000000  0.000000  1.0
  Hg  Hg2  1  0.000000  0.000000  0.000000  1.0
  H  H3  1  0.250000  0.816180  0.369224  1.0
  H  H4  1  0.750000  0.816180  0.630776  1.0
  H  H5  1  0.750000  0.183820  0.630776  1.0
  H  H6  1  0.250000  0.183820  0.369224  1.0
  N  N7  1  0.250000  0.000000  0.247658  1.0
  N  N8  1  0.750000  0.000000  0.752342  1.0
  Cl  Cl9  1  0.250000  0.500000  0.723882  1.0
  Cl  Cl10  1  0.750000  0.500000  0.276118  1.0
