# generated using pymatgen
data_CeTh3O8
_symmetry_space_group_name_H-M   'P 1'
_cell_length_a   3.94870057
_cell_length_b   6.83754707
_cell_length_c   6.83754707
_cell_angle_alpha   70.52502521
_cell_angle_beta   90.00000000
_cell_angle_gamma   90.00000000
_symmetry_Int_Tables_number   1
_chemical_formula_structural   CeTh3O8
_chemical_formula_sum   'Ce1 Th3 O8'
_cell_volume   174.04779979
_cell_formula_units_Z   1
loop_
 _symmetry_equiv_pos_site_id
 _symmetry_equiv_pos_as_xyz
  1  'x, y, z'
loop_
 _atom_site_type_symbol
 _atom_site_label
 _atom_site_symmetry_multiplicity
 _atom_site_fract_x
 _atom_site_fract_y
 _atom_site_fract_z
 _atom_site_occupancy
  Ce  Ce1  1  0.000000  0.500000  0.500000  1.0
  Th  Th2  1  0.500000  0.500000  0.000000  1.0
  Th  Th3  1  0.500000  0.000000  0.500000  1.0
  Th  Th4  1  0.000000  0.000000  0.000000  1.0
  O  O5  1  0.500000  0.874744  0.874744  1.0
  O  O6  1  0.000000  0.376557  0.871566  1.0
  O  O7  1  0.500000  0.622763  0.622763  1.0
  O  O8  1  0.000000  0.871566  0.376557  1.0
  O  O9  1  0.000000  0.128434  0.623443  1.0
  O  O10  1  0.500000  0.377237  0.377237  1.0
  O  O11  1  0.000000  0.623443  0.128434  1.0
  O  O12  1  0.500000  0.125256  0.125256  1.0
