# generated using pymatgen
data_LiCuS
_symmetry_space_group_name_H-M   'P 1'
_cell_length_a   12.24991594
_cell_length_b   3.71145372
_cell_length_c   3.72209637
_cell_angle_alpha   90.00000000
_cell_angle_beta   90.00000000
_cell_angle_gamma   90.00000000
_symmetry_Int_Tables_number   1
_chemical_formula_structural   LiCuS
_chemical_formula_sum   'Li4 Cu4 S4'
_cell_volume   169.22509689
_cell_formula_units_Z   4
loop_
 _symmetry_equiv_pos_site_id
 _symmetry_equiv_pos_as_xyz
  1  'x, y, z'
loop_
 _atom_site_type_symbol
 _atom_site_label
 _atom_site_symmetry_multiplicity
 _atom_site_fract_x
 _atom_site_fract_y
 _atom_site_fract_z
 _atom_site_occupancy
  Li  Li1  1  0.078437  0.250000  0.264076  1.0
  Li  Li2  1  0.421563  0.750000  0.764076  1.0
  Li  Li3  1  0.578437  0.250000  0.235924  1.0
  Li  Li4  1  0.921563  0.750000  0.735924  1.0
  Cu  Cu5  1  0.250143  0.250000  0.779681  1.0
  Cu  Cu6  1  0.249857  0.750000  0.279681  1.0
  Cu  Cu7  1  0.750143  0.250000  0.720319  1.0
  Cu  Cu8  1  0.749857  0.750000  0.220319  1.0
  S  S9  1  0.123129  0.750000  0.764301  1.0
  S  S10  1  0.376871  0.250000  0.264301  1.0
  S  S11  1  0.623129  0.750000  0.735699  1.0
  S  S12  1  0.876871  0.250000  0.235699  1.0
