# generated using pymatgen
data_KHCO2
_symmetry_space_group_name_H-M   'P 1'
_cell_length_a   4.56885571
_cell_length_b   4.56885571
_cell_length_c   7.05183040
_cell_angle_alpha   90.00000000
_cell_angle_beta   90.00000000
_cell_angle_gamma   80.94599403
_symmetry_Int_Tables_number   1
_chemical_formula_structural   KHCO2
_chemical_formula_sum   'K2 H2 C2 O4'
_cell_volume   145.36894464
_cell_formula_units_Z   2
loop_
 _symmetry_equiv_pos_site_id
 _symmetry_equiv_pos_as_xyz
  1  'x, y, z'
loop_
 _atom_site_type_symbol
 _atom_site_label
 _atom_site_symmetry_multiplicity
 _atom_site_fract_x
 _atom_site_fract_y
 _atom_site_fract_z
 _atom_site_occupancy
  K  K1  1  0.000000  0.000000  0.500000  1.0
  K  K2  1  0.000000  0.000000  0.000000  1.0
  H  H3  1  0.558398  0.558398  0.250000  1.0
  H  H4  1  0.441602  0.441602  0.750000  1.0
  C  C5  1  0.398164  0.398164  0.250000  1.0
  C  C6  1  0.601836  0.601836  0.750000  1.0
  O  O7  1  0.123376  0.505260  0.250000  1.0
  O  O8  1  0.494740  0.876624  0.750000  1.0
  O  O9  1  0.876624  0.494740  0.750000  1.0
  O  O10  1  0.505260  0.123376  0.250000  1.0
