# generated using pymatgen
data_Si3N4
_symmetry_space_group_name_H-M   'P 1'
_cell_length_a   7.71131359
_cell_length_b   7.71131376
_cell_length_c   5.63373322
_cell_angle_alpha   90.00000000
_cell_angle_beta   90.00000000
_cell_angle_gamma   119.99999931
_symmetry_Int_Tables_number   1
_chemical_formula_structural   Si3N4
_chemical_formula_sum   'Si12 N16'
_cell_volume   290.12399632
_cell_formula_units_Z   4
loop_
 _symmetry_equiv_pos_site_id
 _symmetry_equiv_pos_as_xyz
  1  'x, y, z'
loop_
 _atom_site_type_symbol
 _atom_site_label
 _atom_site_symmetry_multiplicity
 _atom_site_fract_x
 _atom_site_fract_y
 _atom_site_fract_z
 _atom_site_occupancy
  Si  Si1  1  0.097777  0.583561  0.167282  1.0
  Si  Si2  1  0.485784  0.902223  0.167282  1.0
  Si  Si3  1  0.910162  0.164935  0.956173  1.0
  Si  Si4  1  0.583561  0.097777  0.667282  1.0
  Si  Si5  1  0.089838  0.254773  0.456173  1.0
  Si  Si6  1  0.164935  0.910162  0.456173  1.0
  Si  Si7  1  0.416439  0.514216  0.167282  1.0
  Si  Si8  1  0.745227  0.835065  0.456173  1.0
  Si  Si9  1  0.902223  0.485784  0.667282  1.0
  Si  Si10  1  0.514216  0.416439  0.667282  1.0
  Si  Si11  1  0.835065  0.745227  0.956173  1.0
  Si  Si12  1  0.254773  0.089838  0.956173  1.0
  N  N13  1  0.350247  0.369769  0.427817  1.0
  N  N14  1  0.019522  0.649753  0.427817  1.0
  N  N15  1  0.369769  0.350247  0.927817  1.0
  N  N16  1  0.630231  0.980478  0.427817  1.0
  N  N17  1  0.000000  0.000000  0.957042  1.0
  N  N18  1  0.972669  0.303478  0.691837  1.0
  N  N19  1  0.000000  0.000000  0.457042  1.0
  N  N20  1  0.666667  0.333333  0.109329  1.0
  N  N21  1  0.669191  0.696522  0.191837  1.0
  N  N22  1  0.649753  0.019522  0.927817  1.0
  N  N23  1  0.980478  0.630231  0.927817  1.0
  N  N24  1  0.333333  0.666667  0.609329  1.0
  N  N25  1  0.027331  0.330809  0.191837  1.0
  N  N26  1  0.330809  0.027331  0.691837  1.0
  N  N27  1  0.696522  0.669191  0.691837  1.0
  N  N28  1  0.303478  0.972669  0.191837  1.0
