# generated using pymatgen
data_Sr2CoO3
_symmetry_space_group_name_H-M   'P 1'
_cell_length_a   3.53272481
_cell_length_b   3.53272481
_cell_length_c   10.90510182
_cell_angle_alpha   86.10205549
_cell_angle_beta   93.89794451
_cell_angle_gamma   89.21526832
_symmetry_Int_Tables_number   1
_chemical_formula_structural   Sr2CoO3
_chemical_formula_sum   'Sr2 Co1 O3'
_cell_volume   135.44537420
_cell_formula_units_Z   1
loop_
 _symmetry_equiv_pos_site_id
 _symmetry_equiv_pos_as_xyz
  1  'x, y, z'
loop_
 _atom_site_type_symbol
 _atom_site_label
 _atom_site_symmetry_multiplicity
 _atom_site_fract_x
 _atom_site_fract_y
 _atom_site_fract_z
 _atom_site_occupancy
  Sr  Sr1  1  0.544198  0.455802  0.708269  1.0
  Sr  Sr2  1  0.455802  0.544198  0.291731  1.0
  Co  Co3  1  0.000000  0.000000  0.500000  1.0
  O  O4  1  0.500000  0.500000  0.500000  1.0
  O  O5  1  0.040296  0.959704  0.689922  1.0
  O  O6  1  0.959704  0.040296  0.310078  1.0
