# generated using pymatgen
data_HfSnO3
_symmetry_space_group_name_H-M   'P 1'
_cell_length_a   5.45005205
_cell_length_b   7.45484041
_cell_length_c   5.45016420
_cell_angle_alpha   111.41420577
_cell_angle_beta   60.00112309
_cell_angle_gamma   111.41203832
_symmetry_Int_Tables_number   1
_chemical_formula_structural   HfSnO3
_chemical_formula_sum   'Hf2 Sn2 O6'
_cell_volume   173.89745041
_cell_formula_units_Z   2
loop_
 _symmetry_equiv_pos_site_id
 _symmetry_equiv_pos_as_xyz
  1  'x, y, z'
loop_
 _atom_site_type_symbol
 _atom_site_label
 _atom_site_symmetry_multiplicity
 _atom_site_fract_x
 _atom_site_fract_y
 _atom_site_fract_z
 _atom_site_occupancy
  Hf  Hf1  1  0.333023  0.999121  0.333051  1.0
  Hf  Hf2  1  0.666978  0.000879  0.666949  1.0
  Sn  Sn3  1  0.108788  0.326920  0.108795  1.0
  Sn  Sn4  1  0.891213  0.673080  0.891206  1.0
  O  O5  1  0.055505  0.164476  0.403265  1.0
  O  O6  1  0.403319  0.164493  0.705435  1.0
  O  O7  1  0.294518  0.835570  0.944524  1.0
  O  O8  1  0.705481  0.164430  0.055478  1.0
  O  O9  1  0.596681  0.835506  0.294564  1.0
  O  O10  1  0.944494  0.835524  0.596733  1.0
