# generated using pymatgen
data_BaCuO2
_symmetry_space_group_name_H-M   'P 1'
_cell_length_a   6.06111736
_cell_length_b   11.91043092
_cell_length_c   3.70276219
_cell_angle_alpha   90.00000000
_cell_angle_beta   90.00892813
_cell_angle_gamma   90.00000000
_symmetry_Int_Tables_number   1
_chemical_formula_structural   BaCuO2
_chemical_formula_sum   'Ba4 Cu4 O8'
_cell_volume   267.30432326
_cell_formula_units_Z   4
loop_
 _symmetry_equiv_pos_site_id
 _symmetry_equiv_pos_as_xyz
  1  'x, y, z'
loop_
 _atom_site_type_symbol
 _atom_site_label
 _atom_site_symmetry_multiplicity
 _atom_site_fract_x
 _atom_site_fract_y
 _atom_site_fract_z
 _atom_site_occupancy
  Ba  Ba1  1  0.981441  0.892990  0.501041  1.0
  Ba  Ba2  1  0.519488  0.607555  0.497151  1.0
  Ba  Ba3  1  0.480512  0.107555  0.502849  1.0
  Ba  Ba4  1  0.018559  0.392990  0.498959  1.0
  Cu  Cu5  1  0.983860  0.123971  0.005680  1.0
  Cu  Cu6  1  0.514513  0.376855  0.002729  1.0
  Cu  Cu7  1  0.485487  0.876855  0.997271  1.0
  Cu  Cu8  1  0.016140  0.623971  0.994320  1.0
  O  O9  1  0.989364  0.664800  0.494293  1.0
  O  O10  1  0.010636  0.164800  0.505707  1.0
  O  O11  1  0.258849  0.510738  0.997286  1.0
  O  O12  1  0.241587  0.989463  0.001582  1.0
  O  O13  1  0.511147  0.835629  0.497375  1.0
  O  O14  1  0.488853  0.335629  0.502625  1.0
  O  O15  1  0.758413  0.489463  0.998418  1.0
  O  O16  1  0.741151  0.010738  0.002714  1.0
