# generated using pymatgen
data_Li2CuS2
_symmetry_space_group_name_H-M   'P 1'
_cell_length_a   5.59665645
_cell_length_b   7.94202810
_cell_length_c   5.80595841
_cell_angle_alpha   90.00806943
_cell_angle_beta   90.16324361
_cell_angle_gamma   44.85223484
_symmetry_Int_Tables_number   1
_chemical_formula_structural   Li2CuS2
_chemical_formula_sum   'Li4 Cu2 S4'
_cell_volume   182.00895348
_cell_formula_units_Z   2
loop_
 _symmetry_equiv_pos_site_id
 _symmetry_equiv_pos_as_xyz
  1  'x, y, z'
loop_
 _atom_site_type_symbol
 _atom_site_label
 _atom_site_symmetry_multiplicity
 _atom_site_fract_x
 _atom_site_fract_y
 _atom_site_fract_z
 _atom_site_occupancy
  Li  Li1  1  0.006887  0.496722  0.762381  1.0
  Li  Li2  1  0.006775  0.996443  0.762379  1.0
  Li  Li3  1  0.010718  0.498688  0.261651  1.0
  Li  Li4  1  0.010755  0.990421  0.261605  1.0
  Cu  Cu5  1  0.498810  0.000574  0.262645  1.0
  Cu  Cu6  1  0.499771  0.000072  0.765488  1.0
  S  S7  1  0.045611  0.227190  0.510868  1.0
  S  S8  1  0.509009  0.767372  0.012518  1.0
  S  S9  1  0.508771  0.223688  0.012616  1.0
  S  S10  1  0.956705  0.771629  0.513801  1.0
