# generated using pymatgen
data_LiMnO2
_symmetry_space_group_name_H-M   'P 1'
_cell_length_a   10.26996648
_cell_length_b   10.26996606
_cell_length_c   14.55640561
_cell_angle_alpha   19.49563143
_cell_angle_beta   19.49562893
_cell_angle_gamma   33.51821458
_symmetry_Int_Tables_number   1
_chemical_formula_structural   LiMnO2
_chemical_formula_sum   'Li4 Mn4 O8'
_cell_volume   148.77414544
_cell_formula_units_Z   4
loop_
 _symmetry_equiv_pos_site_id
 _symmetry_equiv_pos_as_xyz
  1  'x, y, z'
loop_
 _atom_site_type_symbol
 _atom_site_label
 _atom_site_symmetry_multiplicity
 _atom_site_fract_x
 _atom_site_fract_y
 _atom_site_fract_z
 _atom_site_occupancy
  Li  Li1  1  0.500000  0.500000  0.000000  1.0
  Li  Li2  1  0.000000  0.500000  0.500000  1.0
  Li  Li3  1  0.500000  0.000000  0.500000  1.0
  Li  Li4  1  0.500000  0.500000  0.500000  1.0
  Mn  Mn5  1  0.000000  0.000000  0.000000  1.0
  Mn  Mn6  1  0.000000  0.500000  0.000000  1.0
  Mn  Mn7  1  0.500000  0.000000  0.000000  1.0
  Mn  Mn8  1  0.000000  0.000000  0.500000  1.0
  O  O9  1  0.035108  0.035108  0.214827  1.0
  O  O10  1  0.971533  0.482153  0.287353  1.0
  O  O11  1  0.482153  0.971533  0.287353  1.0
  O  O12  1  0.964892  0.964892  0.785173  1.0
  O  O13  1  0.505181  0.505181  0.235929  1.0
  O  O14  1  0.028467  0.517847  0.712647  1.0
  O  O15  1  0.517847  0.028467  0.712647  1.0
  O  O16  1  0.494819  0.494819  0.764071  1.0
