# generated using pymatgen
data_Hf2N2O
_symmetry_space_group_name_H-M   'P 1'
_cell_length_a   9.62380031
_cell_length_b   5.48402392
_cell_length_c   3.43708351
_cell_angle_alpha   51.18683303
_cell_angle_beta   111.19001589
_cell_angle_gamma   90.25048910
_symmetry_Int_Tables_number   1
_chemical_formula_structural   Hf2N2O
_chemical_formula_sum   'Hf4 N4 O2'
_cell_volume   125.47418882
_cell_formula_units_Z   2
loop_
 _symmetry_equiv_pos_site_id
 _symmetry_equiv_pos_as_xyz
  1  'x, y, z'
loop_
 _atom_site_type_symbol
 _atom_site_label
 _atom_site_symmetry_multiplicity
 _atom_site_fract_x
 _atom_site_fract_y
 _atom_site_fract_z
 _atom_site_occupancy
  Hf  Hf1  1  0.105517  0.183748  0.666443  1.0
  Hf  Hf2  1  0.670030  0.456337  0.966942  1.0
  Hf  Hf3  1  0.328499  0.547450  0.029462  1.0
  Hf  Hf4  1  0.892699  0.819861  0.329271  1.0
  N  N5  1  0.248221  0.081214  0.415122  1.0
  N  N6  1  0.902131  0.314976  0.842174  1.0
  N  N7  1  0.096308  0.688511  0.151845  1.0
  N  N8  1  0.750034  0.922479  0.580021  1.0
  O  O9  1  0.438396  0.374943  0.813119  1.0
  O  O10  1  0.560244  0.628574  0.183535  1.0
