# generated using pymatgen
data_Tb2SeO2
_symmetry_space_group_name_H-M   'P 1'
_cell_length_a   3.87066415
_cell_length_b   12.24322251
_cell_length_c   3.86049996
_cell_angle_alpha   90.00000000
_cell_angle_beta   90.00000000
_cell_angle_gamma   90.00000000
_symmetry_Int_Tables_number   1
_chemical_formula_structural   Tb2SeO2
_chemical_formula_sum   'Tb4 Se2 O4'
_cell_volume   182.94678626
_cell_formula_units_Z   2
loop_
 _symmetry_equiv_pos_site_id
 _symmetry_equiv_pos_as_xyz
  1  'x, y, z'
loop_
 _atom_site_type_symbol
 _atom_site_label
 _atom_site_symmetry_multiplicity
 _atom_site_fract_x
 _atom_site_fract_y
 _atom_site_fract_z
 _atom_site_occupancy
  Tb  Tb1  1  0.070001  0.343196  0.000000  1.0
  Tb  Tb2  1  0.429999  0.843196  0.500000  1.0
  Tb  Tb3  1  0.570001  0.156804  0.500000  1.0
  Tb  Tb4  1  0.929999  0.656804  0.000000  1.0
  Se  Se5  1  0.000000  0.000000  0.000000  1.0
  Se  Se6  1  0.500000  0.500000  0.500000  1.0
  O  O7  1  0.065518  0.249471  0.500000  1.0
  O  O8  1  0.434482  0.749471  0.000000  1.0
  O  O9  1  0.565518  0.250529  0.000000  1.0
  O  O10  1  0.934482  0.750529  0.500000  1.0
