# generated using pymatgen
data_ErZnAsO
_symmetry_space_group_name_H-M   'P 1'
_cell_length_a   3.93512956
_cell_length_b   3.93512956
_cell_length_c   8.87645265
_cell_angle_alpha   90.00000000
_cell_angle_beta   90.00000000
_cell_angle_gamma   90.00000000
_symmetry_Int_Tables_number   1
_chemical_formula_structural   ErZnAsO
_chemical_formula_sum   'Er2 Zn2 As2 O2'
_cell_volume   137.45404094
_cell_formula_units_Z   2
loop_
 _symmetry_equiv_pos_site_id
 _symmetry_equiv_pos_as_xyz
  1  'x, y, z'
loop_
 _atom_site_type_symbol
 _atom_site_label
 _atom_site_symmetry_multiplicity
 _atom_site_fract_x
 _atom_site_fract_y
 _atom_site_fract_z
 _atom_site_occupancy
  Er  Er1  1  0.250000  0.250000  0.120549  1.0
  Er  Er2  1  0.749999  0.749999  0.879450  1.0
  Zn  Zn3  1  0.749999  0.250000  0.500000  1.0
  Zn  Zn4  1  0.250000  0.749999  0.500000  1.0
  As  As5  1  0.749999  0.749999  0.314424  1.0
  As  As6  1  0.250000  0.250000  0.685576  1.0
  O  O7  1  0.749999  0.250000  0.000000  1.0
  O  O8  1  0.250000  0.749999  0.000000  1.0
