# generated using pymatgen
data_MnV3O8
_symmetry_space_group_name_H-M   'P 1'
_cell_length_a   6.30997742
_cell_length_b   6.30997710
_cell_length_c   6.63740225
_cell_angle_alpha   74.10230449
_cell_angle_beta   105.89769897
_cell_angle_gamma   144.87296888
_symmetry_Int_Tables_number   1
_chemical_formula_structural   MnV3O8
_chemical_formula_sum   'Mn1 V3 O8'
_cell_volume   145.64924730
_cell_formula_units_Z   1
loop_
 _symmetry_equiv_pos_site_id
 _symmetry_equiv_pos_as_xyz
  1  'x, y, z'
loop_
 _atom_site_type_symbol
 _atom_site_label
 _atom_site_symmetry_multiplicity
 _atom_site_fract_x
 _atom_site_fract_y
 _atom_site_fract_z
 _atom_site_occupancy
  Mn  Mn1  1  0.707820  0.292180  0.307660  1.0
  V  V2  1  0.402369  0.597631  0.296292  1.0
  V  V3  1  0.601643  0.398357  0.719574  1.0
  V  V4  1  0.300155  0.699845  0.722294  1.0
  O  O5  1  0.132369  0.867631  0.689660  1.0
  O  O6  1  0.243063  0.756937  0.356600  1.0
  O  O7  1  0.359874  0.640126  0.988831  1.0
  O  O8  1  0.445907  0.554093  0.630848  1.0
  O  O9  1  0.553663  0.446337  0.355314  1.0
  O  O10  1  0.629727  0.370273  0.977538  1.0
  O  O11  1  0.758786  0.241214  0.663906  1.0
  O  O12  1  0.864625  0.135375  0.291484  1.0
