# generated using pymatgen
data_Zn2As2O7
_symmetry_space_group_name_H-M   'P 1'
_cell_length_a   4.86343033
_cell_length_b   5.48085855
_cell_length_c   5.48085855
_cell_angle_alpha   103.85743782
_cell_angle_beta   98.85298129
_cell_angle_gamma   98.85298129
_symmetry_Int_Tables_number   1
_chemical_formula_structural   Zn2As2O7
_chemical_formula_sum   'Zn2 As2 O7'
_cell_volume   137.35566197
_cell_formula_units_Z   1
loop_
 _symmetry_equiv_pos_site_id
 _symmetry_equiv_pos_as_xyz
  1  'x, y, z'
loop_
 _atom_site_type_symbol
 _atom_site_label
 _atom_site_symmetry_multiplicity
 _atom_site_fract_x
 _atom_site_fract_y
 _atom_site_fract_z
 _atom_site_occupancy
  Zn  Zn1  1  0.000000  0.307333  0.692667  1.0
  Zn  Zn2  1  0.000000  0.692667  0.307333  1.0
  As  As3  1  0.402066  0.231469  0.231469  1.0
  As  As4  1  0.597934  0.768531  0.768531  1.0
  O  O5  1  0.273411  0.593506  0.593506  1.0
  O  O6  1  0.210319  0.065942  0.397783  1.0
  O  O7  1  0.210319  0.397783  0.065942  1.0
  O  O8  1  0.500000  0.000000  0.000000  1.0
  O  O9  1  0.789681  0.602217  0.934058  1.0
  O  O10  1  0.789681  0.934058  0.602217  1.0
  O  O11  1  0.726589  0.406494  0.406494  1.0
