# generated using pymatgen
data_LiFeO2
_symmetry_space_group_name_H-M   'P 1'
_cell_length_a   10.24565538
_cell_length_b   10.24565530
_cell_length_c   14.54137088
_cell_angle_alpha   19.46103861
_cell_angle_beta   19.46103766
_cell_angle_gamma   33.41185617
_symmetry_Int_Tables_number   1
_chemical_formula_structural   LiFeO2
_chemical_formula_sum   'Li4 Fe4 O8'
_cell_volume   147.80658758
_cell_formula_units_Z   4
loop_
 _symmetry_equiv_pos_site_id
 _symmetry_equiv_pos_as_xyz
  1  'x, y, z'
loop_
 _atom_site_type_symbol
 _atom_site_label
 _atom_site_symmetry_multiplicity
 _atom_site_fract_x
 _atom_site_fract_y
 _atom_site_fract_z
 _atom_site_occupancy
  Li  Li1  1  0.500000  0.500000  0.000000  1.0
  Li  Li2  1  0.000000  0.500000  0.500000  1.0
  Li  Li3  1  0.500000  0.000000  0.500000  1.0
  Li  Li4  1  0.500000  0.500000  0.500000  1.0
  Fe  Fe5  1  0.000000  0.000000  0.000000  1.0
  Fe  Fe6  1  0.000000  0.500000  0.000000  1.0
  Fe  Fe7  1  0.500000  0.000000  0.000000  1.0
  Fe  Fe8  1  0.000000  0.000000  0.500000  1.0
  O  O9  1  0.023353  0.023353  0.226643  1.0
  O  O10  1  0.982318  0.482190  0.276586  1.0
  O  O11  1  0.482190  0.982318  0.276586  1.0
  O  O12  1  0.976647  0.976647  0.773357  1.0
  O  O13  1  0.501894  0.501894  0.247972  1.0
  O  O14  1  0.017682  0.517810  0.723414  1.0
  O  O15  1  0.517810  0.017682  0.723414  1.0
  O  O16  1  0.498106  0.498106  0.752028  1.0
