# generated using pymatgen
data_LiFeF4
_symmetry_space_group_name_H-M   'P 1'
_cell_length_a   5.23194947
_cell_length_b   6.39635385
_cell_length_c   5.46824382
_cell_angle_alpha   88.40370915
_cell_angle_beta   90.00000000
_cell_angle_gamma   65.85928347
_symmetry_Int_Tables_number   1
_chemical_formula_structural   LiFeF4
_chemical_formula_sum   'Li2 Fe2 F8'
_cell_volume   166.91491637
_cell_formula_units_Z   2
loop_
 _symmetry_equiv_pos_site_id
 _symmetry_equiv_pos_as_xyz
  1  'x, y, z'
loop_
 _atom_site_type_symbol
 _atom_site_label
 _atom_site_symmetry_multiplicity
 _atom_site_fract_x
 _atom_site_fract_y
 _atom_site_fract_z
 _atom_site_occupancy
  Li  Li1  1  0.947128  0.000000  0.750000  1.0
  Li  Li2  1  0.052872  0.000000  0.250000  1.0
  Fe  Fe3  1  0.000000  0.500000  0.500000  1.0
  Fe  Fe4  1  0.500000  0.500000  0.000000  1.0
  F  F5  1  0.243916  0.821207  0.976158  1.0
  F  F6  1  0.934878  0.821207  0.476158  1.0
  F  F7  1  0.342416  0.433433  0.698815  1.0
  F  F8  1  0.775851  0.566567  0.801185  1.0
  F  F9  1  0.224149  0.433433  0.198815  1.0
  F  F10  1  0.657584  0.566567  0.301185  1.0
  F  F11  1  0.065122  0.178793  0.523842  1.0
  F  F12  1  0.756084  0.178793  0.023842  1.0
