# generated using pymatgen
data_Ba2HfO4
_symmetry_space_group_name_H-M   'P 1'
_cell_length_a   4.19432862
_cell_length_b   4.19432862
_cell_length_c   7.42959753
_cell_angle_alpha   73.60417279
_cell_angle_beta   73.60417279
_cell_angle_gamma   90.00000000
_symmetry_Int_Tables_number   1
_chemical_formula_structural   Ba2HfO4
_chemical_formula_sum   'Ba2 Hf1 O4'
_cell_volume   119.83857654
_cell_formula_units_Z   1
loop_
 _symmetry_equiv_pos_site_id
 _symmetry_equiv_pos_as_xyz
  1  'x, y, z'
loop_
 _atom_site_type_symbol
 _atom_site_label
 _atom_site_symmetry_multiplicity
 _atom_site_fract_x
 _atom_site_fract_y
 _atom_site_fract_z
 _atom_site_occupancy
  Ba  Ba1  1  0.352681  0.352681  0.294638  1.0
  Ba  Ba2  1  0.647319  0.647319  0.705362  1.0
  Hf  Hf3  1  0.000000  0.000000  0.000000  1.0
  O  O4  1  0.500000  0.000000  0.000000  1.0
  O  O5  1  0.000000  0.500000  0.000000  1.0
  O  O6  1  0.155068  0.155068  0.689864  1.0
  O  O7  1  0.844932  0.844932  0.310136  1.0
