# generated using pymatgen
data_CuAsO3
_symmetry_space_group_name_H-M   'P 1'
_cell_length_a   5.01572485
_cell_length_b   5.78666459
_cell_length_c   5.01330274
_cell_angle_alpha   115.62086177
_cell_angle_beta   59.98640327
_cell_angle_gamma   115.68055280
_symmetry_Int_Tables_number   1
_chemical_formula_structural   CuAsO3
_chemical_formula_sum   'Cu2 As2 O6'
_cell_volume   109.12907537
_cell_formula_units_Z   2
loop_
 _symmetry_equiv_pos_site_id
 _symmetry_equiv_pos_as_xyz
  1  'x, y, z'
loop_
 _atom_site_type_symbol
 _atom_site_label
 _atom_site_symmetry_multiplicity
 _atom_site_fract_x
 _atom_site_fract_y
 _atom_site_fract_z
 _atom_site_occupancy
  Cu  Cu1  1  0.130008  0.390089  0.129410  1.0
  Cu  Cu2  1  0.870022  0.609933  0.870590  1.0
  As  As3  1  0.337660  0.011426  0.336267  1.0
  As  As4  1  0.662331  0.988555  0.663729  1.0
  O  O5  1  0.064680  0.212912  0.447613  1.0
  O  O6  1  0.552383  0.787174  0.299844  1.0
  O  O7  1  0.299788  0.787326  0.935539  1.0
  O  O8  1  0.700148  0.212674  0.064463  1.0
  O  O9  1  0.447662  0.212823  0.700099  1.0
  O  O10  1  0.935317  0.787089  0.552447  1.0
