# generated using pymatgen
data_Zr5N5O2
_symmetry_space_group_name_H-M   'P 1'
_cell_length_a   3.11537184
_cell_length_b   5.52655417
_cell_length_c   9.25826252
_cell_angle_alpha   75.03112357
_cell_angle_beta   89.95609158
_cell_angle_gamma   73.60149653
_symmetry_Int_Tables_number   1
_chemical_formula_structural   Zr5N5O2
_chemical_formula_sum   'Zr5 N5 O2'
_cell_volume   147.28027649
_cell_formula_units_Z   1
loop_
 _symmetry_equiv_pos_site_id
 _symmetry_equiv_pos_as_xyz
  1  'x, y, z'
loop_
 _atom_site_type_symbol
 _atom_site_label
 _atom_site_symmetry_multiplicity
 _atom_site_fract_x
 _atom_site_fract_y
 _atom_site_fract_z
 _atom_site_occupancy
  Zr  Zr1  1  0.117774  0.770363  0.928897  1.0
  Zr  Zr2  1  0.695119  0.599322  0.309720  1.0
  Zr  Zr3  1  0.293309  0.410031  0.692652  1.0
  Zr  Zr4  1  0.892092  0.220480  0.081946  1.0
  Zr  Zr5  1  0.993966  0.003959  0.504623  1.0
  N  N6  1  0.508392  0.986307  0.011753  1.0
  N  N7  1  0.650183  0.691496  0.557880  1.0
  N  N8  1  0.740709  0.522570  0.856985  1.0
  N  N9  1  0.265449  0.468580  0.152005  1.0
  N  N10  1  0.336757  0.317700  0.448986  1.0
  O  O11  1  0.038975  0.909678  0.292821  1.0
  O  O12  1  0.950006  0.092125  0.718185  1.0
