# generated using pymatgen
data_Hf3N4
_symmetry_space_group_name_H-M   'P 1'
_cell_length_a   3.40918986
_cell_length_b   8.63881210
_cell_length_c   3.40918967
_cell_angle_alpha   90.00000174
_cell_angle_beta   60.00000135
_cell_angle_gamma   101.38018324
_symmetry_Int_Tables_number   1
_chemical_formula_structural   Hf3N4
_chemical_formula_sum   'Hf3 N4'
_cell_volume   84.66641872
_cell_formula_units_Z   1
loop_
 _symmetry_equiv_pos_site_id
 _symmetry_equiv_pos_as_xyz
  1  'x, y, z'
loop_
 _atom_site_type_symbol
 _atom_site_label
 _atom_site_symmetry_multiplicity
 _atom_site_fract_x
 _atom_site_fract_y
 _atom_site_fract_z
 _atom_site_occupancy
  Hf  Hf1  1  0.443982  0.665972  0.778009  1.0
  Hf  Hf2  1  0.556018  0.334028  0.221991  1.0
  Hf  Hf3  1  0.000000  0.000000  0.000000  1.0
  N  N4  1  0.243769  0.865653  0.378115  1.0
  N  N5  1  0.735472  0.603209  0.132263  1.0
  N  N6  1  0.264528  0.396791  0.867737  1.0
  N  N7  1  0.756231  0.134347  0.621885  1.0
