# generated using pymatgen
data_V3Cd
_symmetry_space_group_name_H-M   'P 1'
_cell_length_a   5.65490233
_cell_length_b   5.65646123
_cell_length_c   4.48540558
_cell_angle_alpha   89.99264895
_cell_angle_beta   90.00668975
_cell_angle_gamma   119.99747768
_symmetry_Int_Tables_number   1
_chemical_formula_structural   V3Cd
_chemical_formula_sum   'V6 Cd2'
_cell_volume   124.25483789
_cell_formula_units_Z   2
loop_
 _symmetry_equiv_pos_site_id
 _symmetry_equiv_pos_as_xyz
  1  'x, y, z'
loop_
 _atom_site_type_symbol
 _atom_site_label
 _atom_site_symmetry_multiplicity
 _atom_site_fract_x
 _atom_site_fract_y
 _atom_site_fract_z
 _atom_site_occupancy
  V  V1  1  0.150990  0.302085  0.250021  1.0
  V  V2  1  0.698166  0.849014  0.250016  1.0
  V  V3  1  0.150866  0.848883  0.249965  1.0
  V  V4  1  0.849147  0.698477  0.749982  1.0
  V  V5  1  0.301595  0.150744  0.749977  1.0
  V  V6  1  0.849103  0.150627  0.750043  1.0
  Cd  Cd7  1  0.333398  0.666748  0.749997  1.0
  Cd  Cd8  1  0.666735  0.333424  0.250003  1.0
