# generated using pymatgen
data_Tm2SeO2
_symmetry_space_group_name_H-M   'P 1'
_cell_length_a   3.77876789
_cell_length_b   6.54944870
_cell_length_c   3.77876789
_cell_angle_alpha   73.23303610
_cell_angle_beta   90.00000000
_cell_angle_gamma   106.76696390
_symmetry_Int_Tables_number   1
_chemical_formula_structural   Tm2SeO2
_chemical_formula_sum   'Tm2 Se1 O2'
_cell_volume   85.38337346
_cell_formula_units_Z   1
loop_
 _symmetry_equiv_pos_site_id
 _symmetry_equiv_pos_as_xyz
  1  'x, y, z'
loop_
 _atom_site_type_symbol
 _atom_site_label
 _atom_site_symmetry_multiplicity
 _atom_site_fract_x
 _atom_site_fract_y
 _atom_site_fract_z
 _atom_site_occupancy
  Tm  Tm1  1  0.657906  0.315812  0.342094  1.0
  Tm  Tm2  1  0.342094  0.684188  0.657906  1.0
  Se  Se3  1  0.000000  0.000000  0.000000  1.0
  O  O4  1  0.250000  0.500000  0.250000  1.0
  O  O5  1  0.750000  0.500000  0.750000  1.0
