# generated using pymatgen
data_HfZrO4
_symmetry_space_group_name_H-M   'P 1'
_cell_length_a   4.89775711
_cell_length_b   6.91913530
_cell_length_c   3.25269107
_cell_angle_alpha   90.00000000
_cell_angle_beta   90.00000000
_cell_angle_gamma   45.06008459
_symmetry_Int_Tables_number   1
_chemical_formula_structural   HfZrO4
_chemical_formula_sum   'Hf1 Zr1 O4'
_cell_volume   78.02465237
_cell_formula_units_Z   1
loop_
 _symmetry_equiv_pos_site_id
 _symmetry_equiv_pos_as_xyz
  1  'x, y, z'
loop_
 _atom_site_type_symbol
 _atom_site_label
 _atom_site_symmetry_multiplicity
 _atom_site_fract_x
 _atom_site_fract_y
 _atom_site_fract_z
 _atom_site_occupancy
  Hf  Hf1  1  0.000002  0.000085  0.000000  1.0
  Zr  Zr2  1  0.000051  0.499964  0.500000  1.0
  O  O3  1  0.000614  0.302630  0.000000  1.0
  O  O4  1  0.384091  0.808542  0.500000  1.0
  O  O5  1  0.616227  0.192470  0.500000  1.0
  O  O6  1  0.000594  0.697095  0.000000  1.0
