# generated using pymatgen
data_NaNi2O3
_symmetry_space_group_name_H-M   'P 1'
_cell_length_a   5.30504405
_cell_length_b   5.20319555
_cell_length_c   5.20319570
_cell_angle_alpha   118.20160808
_cell_angle_beta   79.22698978
_cell_angle_gamma   79.22700077
_symmetry_Int_Tables_number   1
_chemical_formula_structural   NaNi2O3
_chemical_formula_sum   'Na2 Ni4 O6'
_cell_volume   117.89249631
_cell_formula_units_Z   2
loop_
 _symmetry_equiv_pos_site_id
 _symmetry_equiv_pos_as_xyz
  1  'x, y, z'
loop_
 _atom_site_type_symbol
 _atom_site_label
 _atom_site_symmetry_multiplicity
 _atom_site_fract_x
 _atom_site_fract_y
 _atom_site_fract_z
 _atom_site_occupancy
  Na  Na1  1  0.500000  0.170192  0.829808  1.0
  Na  Na2  1  0.500000  0.829808  0.170192  1.0
  Ni  Ni3  1  0.000000  0.000000  0.000000  1.0
  Ni  Ni4  1  0.000000  0.664823  0.335177  1.0
  Ni  Ni5  1  0.000000  0.335177  0.664823  1.0
  Ni  Ni6  1  0.500000  0.500000  0.500000  1.0
  O  O7  1  0.246779  0.293899  0.293899  1.0
  O  O8  1  0.209630  0.615229  0.916049  1.0
  O  O9  1  0.209630  0.916049  0.615229  1.0
  O  O10  1  0.790370  0.384771  0.083951  1.0
  O  O11  1  0.790370  0.083951  0.384771  1.0
  O  O12  1  0.753221  0.706101  0.706101  1.0
