# generated using pymatgen
data_HgPtO2
_symmetry_space_group_name_H-M   'P 1'
_cell_length_a   3.20152658
_cell_length_b   7.96125099
_cell_length_c   3.20152728
_cell_angle_alpha   101.59949755
_cell_angle_beta   60.00000726
_cell_angle_gamma   101.59949667
_symmetry_Int_Tables_number   1
_chemical_formula_structural   HgPtO2
_chemical_formula_sum   'Hg1 Pt1 O2'
_cell_volume   68.73748424
_cell_formula_units_Z   1
loop_
 _symmetry_equiv_pos_site_id
 _symmetry_equiv_pos_as_xyz
  1  'x, y, z'
loop_
 _atom_site_type_symbol
 _atom_site_label
 _atom_site_symmetry_multiplicity
 _atom_site_fract_x
 _atom_site_fract_y
 _atom_site_fract_z
 _atom_site_occupancy
  Hg  Hg1  1  0.000000  0.000000  0.000000  1.0
  Pt  Pt2  1  0.500000  0.500000  0.500000  1.0
  O  O3  1  0.125795  0.377383  0.125795  1.0
  O  O4  1  0.874205  0.622617  0.874205  1.0
