# generated using pymatgen
data_LiVS2
_symmetry_space_group_name_H-M   'P 1'
_cell_length_a   3.50457704
_cell_length_b   6.31470862
_cell_length_c   3.50457683
_cell_angle_alpha   106.11064583
_cell_angle_beta   59.99999799
_cell_angle_gamma   106.11064614
_symmetry_Int_Tables_number   1
_chemical_formula_structural   LiVS2
_chemical_formula_sum   'Li1 V1 S2'
_cell_volume   63.62550509
_cell_formula_units_Z   1
loop_
 _symmetry_equiv_pos_site_id
 _symmetry_equiv_pos_as_xyz
  1  'x, y, z'
loop_
 _atom_site_type_symbol
 _atom_site_label
 _atom_site_symmetry_multiplicity
 _atom_site_fract_x
 _atom_site_fract_y
 _atom_site_fract_z
 _atom_site_occupancy
  Li  Li1  1  0.000000  0.000000  0.000000  1.0
  V  V2  1  0.500000  0.500000  0.500000  1.0
  S  S3  1  0.243287  0.729861  0.243287  1.0
  S  S4  1  0.756713  0.270139  0.756713  1.0
