# generated using pymatgen
data_Zn3N2
_symmetry_space_group_name_H-M   'P 1'
_cell_length_a   3.40521297
_cell_length_b   5.90000088
_cell_length_c   12.02051062
_cell_angle_alpha   90.00025718
_cell_angle_beta   89.99999737
_cell_angle_gamma   89.99995741
_symmetry_Int_Tables_number   1
_chemical_formula_structural   Zn3N2
_chemical_formula_sum   'Zn12 N8'
_cell_volume   241.50118817
_cell_formula_units_Z   4
loop_
 _symmetry_equiv_pos_site_id
 _symmetry_equiv_pos_as_xyz
  1  'x, y, z'
loop_
 _atom_site_type_symbol
 _atom_site_label
 _atom_site_symmetry_multiplicity
 _atom_site_fract_x
 _atom_site_fract_y
 _atom_site_fract_z
 _atom_site_occupancy
  Zn  Zn1  1  0.999989  0.339871  0.076832  1.0
  Zn  Zn2  1  0.999994  0.660153  0.576835  1.0
  Zn  Zn3  1  0.999991  0.001067  0.246793  1.0
  Zn  Zn4  1  0.999991  0.325979  0.418634  1.0
  Zn  Zn5  1  0.999990  0.998952  0.746793  1.0
  Zn  Zn6  1  0.999989  0.674041  0.918631  1.0
  Zn  Zn7  1  0.499985  0.825985  0.081366  1.0
  Zn  Zn8  1  0.499988  0.160157  0.923167  1.0
  Zn  Zn9  1  0.499990  0.501067  0.253207  1.0
  Zn  Zn10  1  0.499993  0.498951  0.753208  1.0
  Zn  Zn11  1  0.499991  0.174034  0.581369  1.0
  Zn  Zn12  1  0.499994  0.839865  0.423168  1.0
  N  N13  1  0.999990  0.334474  0.247470  1.0
  N  N14  1  0.999986  0.997341  0.002481  1.0
  N  N15  1  0.999992  0.665545  0.747470  1.0
  N  N16  1  0.999993  0.002679  0.502490  1.0
  N  N17  1  0.499991  0.834474  0.252530  1.0
  N  N18  1  0.499992  0.165547  0.752530  1.0
  N  N19  1  0.499992  0.497337  0.497515  1.0
  N  N20  1  0.499981  0.502685  0.997512  1.0
