# generated using pymatgen
data_ZrO2
_symmetry_space_group_name_H-M   'P 1'
_cell_length_a   10.34123972
_cell_length_b   5.28844784
_cell_length_c   5.37288289
_cell_angle_alpha   90.00000000
_cell_angle_beta   90.00000000
_cell_angle_gamma   90.00000000
_symmetry_Int_Tables_number   1
_chemical_formula_structural   ZrO2
_chemical_formula_sum   'Zr8 O16'
_cell_volume   293.83816652
_cell_formula_units_Z   8
loop_
 _symmetry_equiv_pos_site_id
 _symmetry_equiv_pos_as_xyz
  1  'x, y, z'
loop_
 _atom_site_type_symbol
 _atom_site_label
 _atom_site_symmetry_multiplicity
 _atom_site_fract_x
 _atom_site_fract_y
 _atom_site_fract_z
 _atom_site_occupancy
  Zr  Zr1  1  0.138197  0.541348  0.840741  1.0
  Zr  Zr2  1  0.138197  0.958652  0.340741  1.0
  Zr  Zr3  1  0.361803  0.458652  0.340741  1.0
  Zr  Zr4  1  0.361803  0.041348  0.840741  1.0
  Zr  Zr5  1  0.638197  0.958652  0.159259  1.0
  Zr  Zr6  1  0.638197  0.541348  0.659259  1.0
  Zr  Zr7  1  0.861803  0.458652  0.159259  1.0
  Zr  Zr8  1  0.861803  0.041348  0.659259  1.0
  O  O9  1  0.033803  0.835366  0.670213  1.0
  O  O10  1  0.033803  0.664634  0.170213  1.0
  O  O11  1  0.225354  0.250703  0.086619  1.0
  O  O12  1  0.225354  0.249297  0.586619  1.0
  O  O13  1  0.274646  0.750703  0.086619  1.0
  O  O14  1  0.274646  0.749297  0.586619  1.0
  O  O15  1  0.466197  0.164634  0.170213  1.0
  O  O16  1  0.466197  0.335366  0.670213  1.0
  O  O17  1  0.533803  0.664634  0.329787  1.0
  O  O18  1  0.533803  0.835366  0.829787  1.0
  O  O19  1  0.725354  0.250703  0.413381  1.0
  O  O20  1  0.725354  0.249297  0.913381  1.0
  O  O21  1  0.774646  0.750703  0.413381  1.0
  O  O22  1  0.774646  0.749297  0.913381  1.0
  O  O23  1  0.966197  0.164634  0.329787  1.0
  O  O24  1  0.966197  0.335366  0.829787  1.0
