# generated using pymatgen
data_KNdO2
_symmetry_space_group_name_H-M   'P 1'
_cell_length_a   3.63800389
_cell_length_b   3.63782177
_cell_length_c   12.69308825
_cell_angle_alpha   89.99338460
_cell_angle_beta   89.96182573
_cell_angle_gamma   119.99618173
_symmetry_Int_Tables_number   1
_chemical_formula_structural   KNdO2
_chemical_formula_sum   'K2 Nd2 O4'
_cell_volume   145.48528249
_cell_formula_units_Z   2
loop_
 _symmetry_equiv_pos_site_id
 _symmetry_equiv_pos_as_xyz
  1  'x, y, z'
loop_
 _atom_site_type_symbol
 _atom_site_label
 _atom_site_symmetry_multiplicity
 _atom_site_fract_x
 _atom_site_fract_y
 _atom_site_fract_z
 _atom_site_occupancy
  K  K1  1  0.333175  0.666620  0.750047  1.0
  K  K2  1  0.666829  0.333295  0.249954  1.0
  Nd  Nd3  1  0.000001  0.999987  0.000002  1.0
  Nd  Nd4  1  0.999999  0.000043  0.500000  1.0
  O  O5  1  0.333815  0.666998  0.404887  1.0
  O  O6  1  0.332975  0.666353  0.095124  1.0
  O  O7  1  0.666175  0.333094  0.595113  1.0
  O  O8  1  0.667032  0.333610  0.904872  1.0
