# generated using pymatgen
data_TiO2
_symmetry_space_group_name_H-M   'P 1'
_cell_length_a   5.59712525
_cell_length_b   8.77304722
_cell_length_c   3.65468976
_cell_angle_alpha   90.00000000
_cell_angle_beta   90.00000000
_cell_angle_gamma   90.00000000
_symmetry_Int_Tables_number   1
_chemical_formula_structural   TiO2
_chemical_formula_sum   'Ti4 O8'
_cell_volume   179.45931626
_cell_formula_units_Z   4
loop_
 _symmetry_equiv_pos_site_id
 _symmetry_equiv_pos_as_xyz
  1  'x, y, z'
loop_
 _atom_site_type_symbol
 _atom_site_label
 _atom_site_symmetry_multiplicity
 _atom_site_fract_x
 _atom_site_fract_y
 _atom_site_fract_z
 _atom_site_occupancy
  Ti  Ti1  1  0.143031  0.627898  0.500998  1.0
  Ti  Ti2  1  0.356969  0.372102  0.000998  1.0
  Ti  Ti3  1  0.643031  0.872102  0.499002  1.0
  Ti  Ti4  1  0.856969  0.127898  0.999002  1.0
  O  O5  1  0.128805  0.555488  0.001103  1.0
  O  O6  1  0.328374  0.792532  0.500295  1.0
  O  O7  1  0.171626  0.207468  0.000295  1.0
  O  O8  1  0.371195  0.444512  0.501103  1.0
  O  O9  1  0.628805  0.944512  0.998897  1.0
  O  O10  1  0.828374  0.707468  0.499705  1.0
  O  O11  1  0.671626  0.292532  0.999705  1.0
  O  O12  1  0.871195  0.055488  0.498897  1.0
