# generated using pymatgen
data_LaTmO2
_symmetry_space_group_name_H-M   'P 1'
_cell_length_a   3.43573145
_cell_length_b   6.32598902
_cell_length_c   3.43573215
_cell_angle_alpha   105.75693446
_cell_angle_beta   59.99999699
_cell_angle_gamma   105.75693495
_symmetry_Int_Tables_number   1
_chemical_formula_structural   LaTmO2
_chemical_formula_sum   'La1 Tm1 O2'
_cell_volume   61.40769029
_cell_formula_units_Z   1
loop_
 _symmetry_equiv_pos_site_id
 _symmetry_equiv_pos_as_xyz
  1  'x, y, z'
loop_
 _atom_site_type_symbol
 _atom_site_label
 _atom_site_symmetry_multiplicity
 _atom_site_fract_x
 _atom_site_fract_y
 _atom_site_fract_z
 _atom_site_occupancy
  La  La1  1  0.000000  0.000000  0.000000  1.0
  Tm  Tm2  1  0.500000  0.500000  0.500000  1.0
  O  O3  1  0.230334  0.691002  0.230334  1.0
  O  O4  1  0.769666  0.308998  0.769666  1.0
