# generated using pymatgen
data_Er6Te2Ru
_symmetry_space_group_name_H-M   'P 1'
_cell_length_a   8.27183724
_cell_length_b   8.27164324
_cell_length_c   3.99815564
_cell_angle_alpha   90.00000000
_cell_angle_beta   90.00000000
_cell_angle_gamma   60.00077126
_symmetry_Int_Tables_number   1
_chemical_formula_structural   Er6Te2Ru
_chemical_formula_sum   'Er6 Te2 Ru1'
_cell_volume   236.91222880
_cell_formula_units_Z   1
loop_
 _symmetry_equiv_pos_site_id
 _symmetry_equiv_pos_as_xyz
  1  'x, y, z'
loop_
 _atom_site_type_symbol
 _atom_site_label
 _atom_site_symmetry_multiplicity
 _atom_site_fract_x
 _atom_site_fract_y
 _atom_site_fract_z
 _atom_site_occupancy
  Er  Er1  1  0.000000  0.608171  0.500000  1.0
  Er  Er2  1  0.239178  0.760798  0.000000  1.0
  Er  Er3  1  0.000000  0.239168  0.000000  1.0
  Er  Er4  1  0.608135  0.391860  0.500000  1.0
  Er  Er5  1  0.391865  0.999996  0.500000  1.0
  Er  Er6  1  0.760822  0.999977  0.000000  1.0
  Te  Te7  1  0.333319  0.333317  0.000000  1.0
  Te  Te8  1  0.666681  0.666635  0.000000  1.0
  Ru  Ru9  1  0.000000  0.999978  0.500000  1.0
