# generated using pymatgen
data_LiVF4
_symmetry_space_group_name_H-M   'P 1'
_cell_length_a   6.67092766
_cell_length_b   6.07269358
_cell_length_c   10.11883200
_cell_angle_alpha   90.00000000
_cell_angle_beta   143.58795449
_cell_angle_gamma   117.07530034
_symmetry_Int_Tables_number   1
_chemical_formula_structural   LiVF4
_chemical_formula_sum   'Li2 V2 F8'
_cell_volume   156.18674948
_cell_formula_units_Z   2
loop_
 _symmetry_equiv_pos_site_id
 _symmetry_equiv_pos_as_xyz
  1  'x, y, z'
loop_
 _atom_site_type_symbol
 _atom_site_label
 _atom_site_symmetry_multiplicity
 _atom_site_fract_x
 _atom_site_fract_y
 _atom_site_fract_z
 _atom_site_occupancy
  Li  Li1  1  0.002609  0.502527  0.502221  1.0
  Li  Li2  1  0.002609  0.500082  0.002221  1.0
  V  V3  1  0.998844  0.097607  0.749227  1.0
  V  V4  1  0.998844  0.901237  0.249227  1.0
  F  F5  1  0.359566  0.537094  0.032957  1.0
  F  F6  1  0.379841  0.105321  0.066757  1.0
  F  F7  1  0.359566  0.822472  0.532957  1.0
  F  F8  1  0.379841  0.274519  0.566757  1.0
  F  F9  1  0.627263  0.904866  0.938324  1.0
  F  F10  1  0.631025  0.463105  0.959983  1.0
  F  F11  1  0.627263  0.722397  0.438324  1.0
  F  F12  1  0.631025  0.167920  0.459983  1.0
