# generated using pymatgen
data_NbO2
_symmetry_space_group_name_H-M   'P 1'
_cell_length_a   3.98746901
_cell_length_b   6.85026605
_cell_length_c   6.90766543
_cell_angle_alpha   73.13490035
_cell_angle_beta   89.91952712
_cell_angle_gamma   73.44498942
_symmetry_Int_Tables_number   1
_chemical_formula_structural   NbO2
_chemical_formula_sum   'Nb4 O8'
_cell_volume   172.40353299
_cell_formula_units_Z   4
loop_
 _symmetry_equiv_pos_site_id
 _symmetry_equiv_pos_as_xyz
  1  'x, y, z'
loop_
 _atom_site_type_symbol
 _atom_site_label
 _atom_site_symmetry_multiplicity
 _atom_site_fract_x
 _atom_site_fract_y
 _atom_site_fract_z
 _atom_site_occupancy
  Nb  Nb1  1  0.102481  0.797328  0.706534  1.0
  Nb  Nb2  1  0.200779  0.606520  0.289205  1.0
  Nb  Nb3  1  0.801837  0.390486  0.709924  1.0
  Nb  Nb4  1  0.899402  0.199808  0.292606  1.0
  O  O5  1  0.062136  0.883605  0.362242  1.0
  O  O6  1  0.638886  0.723528  0.692890  1.0
  O  O7  1  0.142192  0.722348  0.002814  1.0
  O  O8  1  0.259963  0.477177  0.651928  1.0
  O  O9  1  0.741994  0.520850  0.347264  1.0
  O  O10  1  0.858470  0.275684  0.996264  1.0
  O  O11  1  0.363139  0.273602  0.306303  1.0
  O  O12  1  0.941210  0.113511  0.636571  1.0
