# generated using pymatgen
data_LiNiS2
_symmetry_space_group_name_H-M   'P 1'
_cell_length_a   3.42555846
_cell_length_b   6.85372217
_cell_length_c   5.75880263
_cell_angle_alpha   90.03173932
_cell_angle_beta   89.79830917
_cell_angle_gamma   120.02456208
_symmetry_Int_Tables_number   1
_chemical_formula_structural   LiNiS2
_chemical_formula_sum   'Li2 Ni2 S4'
_cell_volume   117.06041221
_cell_formula_units_Z   2
loop_
 _symmetry_equiv_pos_site_id
 _symmetry_equiv_pos_as_xyz
  1  'x, y, z'
loop_
 _atom_site_type_symbol
 _atom_site_label
 _atom_site_symmetry_multiplicity
 _atom_site_fract_x
 _atom_site_fract_y
 _atom_site_fract_z
 _atom_site_occupancy
  Li  Li1  1  0.006820  0.748970  0.000979  1.0
  Li  Li2  1  0.979914  0.243444  0.000111  1.0
  Ni  Ni3  1  0.994317  0.248080  0.500233  1.0
  Ni  Ni4  1  0.998624  0.747278  0.500567  1.0
  S  S5  1  0.326948  0.080282  0.712287  1.0
  S  S6  1  0.332045  0.580392  0.712219  1.0
  S  S7  1  0.665179  0.914604  0.288709  1.0
  S  S8  1  0.660074  0.414484  0.288280  1.0
