# generated using pymatgen
data_Cd(CuO2)2
_symmetry_space_group_name_H-M   'P 1'
_cell_length_a   5.79681156
_cell_length_b   6.23657918
_cell_length_c   6.23657918
_cell_angle_alpha   98.51291667
_cell_angle_beta   62.47247438
_cell_angle_gamma   62.47247438
_symmetry_Int_Tables_number   1
_chemical_formula_structural   Cd(CuO2)2
_chemical_formula_sum   'Cd2 Cu4 O8'
_cell_volume   157.44514387
_cell_formula_units_Z   2
loop_
 _symmetry_equiv_pos_site_id
 _symmetry_equiv_pos_as_xyz
  1  'x, y, z'
loop_
 _atom_site_type_symbol
 _atom_site_label
 _atom_site_symmetry_multiplicity
 _atom_site_fract_x
 _atom_site_fract_y
 _atom_site_fract_z
 _atom_site_occupancy
  Cd  Cd1  1  0.750000  0.125120  0.374880  1.0
  Cd  Cd2  1  0.250000  0.874880  0.625120  1.0
  Cu  Cu3  1  0.500000  0.000000  0.000000  1.0
  Cu  Cu4  1  0.500000  0.500000  0.000000  1.0
  Cu  Cu5  1  0.000000  0.500000  0.000000  1.0
  Cu  Cu6  1  0.000000  0.500000  0.500000  1.0
  O  O7  1  0.670664  0.180689  0.032595  1.0
  O  O8  1  0.829336  0.467405  0.319311  1.0
  O  O9  1  0.886512  0.296902  0.649475  1.0
  O  O10  1  0.386512  0.149475  0.796903  1.0
  O  O11  1  0.613488  0.850525  0.203098  1.0
  O  O12  1  0.113488  0.703097  0.350525  1.0
  O  O13  1  0.170664  0.532595  0.680689  1.0
  O  O14  1  0.329336  0.819311  0.967405  1.0
