# generated using pymatgen
data_CeFeO3
_symmetry_space_group_name_H-M   'P 1'
_cell_length_a   5.46703430
_cell_length_b   5.78395001
_cell_length_c   7.77724953
_cell_angle_alpha   89.99571229
_cell_angle_beta   89.98573968
_cell_angle_gamma   89.99307838
_symmetry_Int_Tables_number   1
_chemical_formula_structural   CeFeO3
_chemical_formula_sum   'Ce4 Fe4 O12'
_cell_volume   245.92481022
_cell_formula_units_Z   4
loop_
 _symmetry_equiv_pos_site_id
 _symmetry_equiv_pos_as_xyz
  1  'x, y, z'
loop_
 _atom_site_type_symbol
 _atom_site_label
 _atom_site_symmetry_multiplicity
 _atom_site_fract_x
 _atom_site_fract_y
 _atom_site_fract_z
 _atom_site_occupancy
  Ce  Ce1  1  0.024702  0.916254  0.749961  1.0
  Ce  Ce2  1  0.475339  0.416291  0.749915  1.0
  Ce  Ce3  1  0.524645  0.583668  0.250075  1.0
  Ce  Ce4  1  0.975324  0.083733  0.250035  1.0
  Fe  Fe5  1  0.999954  0.499923  0.000010  1.0
  Fe  Fe6  1  0.000009  0.499916  0.500014  1.0
  Fe  Fe7  1  0.499956  0.000100  0.999980  1.0
  Fe  Fe8  1  0.500047  0.000146  0.500023  1.0
  O  O9  1  0.135907  0.453003  0.250134  1.0
  O  O10  1  0.181996  0.181056  0.568138  1.0
  O  O11  1  0.181949  0.181204  0.931855  1.0
  O  O12  1  0.318029  0.681050  0.568183  1.0
  O  O13  1  0.317994  0.681048  0.931838  1.0
  O  O14  1  0.363888  0.953151  0.250010  1.0
  O  O15  1  0.636035  0.046955  0.749987  1.0
  O  O16  1  0.682067  0.318863  0.068056  1.0
  O  O17  1  0.682035  0.318858  0.431919  1.0
  O  O18  1  0.818111  0.818851  0.068100  1.0
  O  O19  1  0.818064  0.818998  0.431903  1.0
  O  O20  1  0.863948  0.546934  0.749862  1.0
