# generated using pymatgen
data_Y2O3
_symmetry_space_group_name_H-M   'P 1'
_cell_length_a   5.82879786
_cell_length_b   6.10017426
_cell_length_c   5.82879757
_cell_angle_alpha   118.53898765
_cell_angle_beta   60.00000401
_cell_angle_gamma   118.53898333
_symmetry_Int_Tables_number   1
_chemical_formula_structural   Y2O3
_chemical_formula_sum   'Y4 O6'
_cell_volume   149.70312770
_cell_formula_units_Z   2
loop_
 _symmetry_equiv_pos_site_id
 _symmetry_equiv_pos_as_xyz
  1  'x, y, z'
loop_
 _atom_site_type_symbol
 _atom_site_label
 _atom_site_symmetry_multiplicity
 _atom_site_fract_x
 _atom_site_fract_y
 _atom_site_fract_z
 _atom_site_occupancy
  Y  Y1  1  0.141944  0.425832  0.141944  1.0
  Y  Y2  1  0.358056  0.074168  0.358056  1.0
  Y  Y3  1  0.641943  0.925831  0.641943  1.0
  Y  Y4  1  0.858057  0.574169  0.858057  1.0
  O  O5  1  0.250000  0.750000  0.542977  1.0
  O  O6  1  0.042977  0.250000  0.750000  1.0
  O  O7  1  0.457023  0.250000  0.042977  1.0
  O  O8  1  0.542977  0.750000  0.957023  1.0
  O  O9  1  0.957023  0.750000  0.250000  1.0
  O  O10  1  0.750000  0.250000  0.457023  1.0
