# generated using pymatgen
data_Li5NiO3F2
_symmetry_space_group_name_H-M   'P 1'
_cell_length_a   3.92971345
_cell_length_b   5.07872270
_cell_length_c   5.86265625
_cell_angle_alpha   72.67216598
_cell_angle_beta   90.05523710
_cell_angle_gamma   67.25237734
_symmetry_Int_Tables_number   1
_chemical_formula_structural   Li5NiO3F2
_chemical_formula_sum   'Li5 Ni1 O3 F2'
_cell_volume   102.10805133
_cell_formula_units_Z   1
loop_
 _symmetry_equiv_pos_site_id
 _symmetry_equiv_pos_as_xyz
  1  'x, y, z'
loop_
 _atom_site_type_symbol
 _atom_site_label
 _atom_site_symmetry_multiplicity
 _atom_site_fract_x
 _atom_site_fract_y
 _atom_site_fract_z
 _atom_site_occupancy
  Li  Li1  1  0.673122  0.655187  0.872938  1.0
  Li  Li2  1  0.697087  0.616107  0.300359  1.0
  Li  Li3  1  0.303953  0.394776  0.695422  1.0
  Li  Li4  1  0.327213  0.350217  0.124492  1.0
  Li  Li5  1  0.994970  0.005706  0.499632  1.0
  Ni  Ni6  1  0.001471  0.003593  0.998039  1.0
  O  O7  1  0.137793  0.727790  0.821344  1.0
  O  O8  1  0.863418  0.278953  0.175941  1.0
  O  O9  1  0.500969  0.005227  0.994728  1.0
  F  F10  1  0.180385  0.649082  0.343602  1.0
  F  F11  1  0.823144  0.360106  0.651527  1.0
