# generated using pymatgen
data_NaFeO3
_symmetry_space_group_name_H-M   'P 1'
_cell_length_a   5.08775914
_cell_length_b   6.04125105
_cell_length_c   5.08775983
_cell_angle_alpha   114.90310217
_cell_angle_beta   59.99999783
_cell_angle_gamma   114.90310590
_symmetry_Int_Tables_number   1
_chemical_formula_structural   NaFeO3
_chemical_formula_sum   'Na2 Fe2 O6'
_cell_volume   118.34198747
_cell_formula_units_Z   2
loop_
 _symmetry_equiv_pos_site_id
 _symmetry_equiv_pos_as_xyz
  1  'x, y, z'
loop_
 _atom_site_type_symbol
 _atom_site_label
 _atom_site_symmetry_multiplicity
 _atom_site_fract_x
 _atom_site_fract_y
 _atom_site_fract_z
 _atom_site_occupancy
  Na  Na1  1  0.639720  0.919161  0.639720  1.0
  Na  Na2  1  0.360279  0.080839  0.360279  1.0
  Fe  Fe3  1  0.163102  0.489307  0.163102  1.0
  Fe  Fe4  1  0.836898  0.510693  0.836898  1.0
  O  O5  1  0.038519  0.298601  0.439818  1.0
  O  O6  1  0.560182  0.701399  0.179737  1.0
  O  O7  1  0.179737  0.701399  0.961481  1.0
  O  O8  1  0.820263  0.298601  0.038519  1.0
  O  O9  1  0.439818  0.298601  0.820263  1.0
  O  O10  1  0.961481  0.701399  0.560182  1.0
