# generated using pymatgen
data_La2MgO4
_symmetry_space_group_name_H-M   'P 1'
_cell_length_a   3.93271446
_cell_length_b   6.86065257
_cell_length_c   3.93271446
_cell_angle_alpha   73.34466242
_cell_angle_beta   90.00000000
_cell_angle_gamma   106.65533758
_symmetry_Int_Tables_number   1
_chemical_formula_structural   La2MgO4
_chemical_formula_sum   'La2 Mg1 O4'
_cell_volume   97.00112504
_cell_formula_units_Z   1
loop_
 _symmetry_equiv_pos_site_id
 _symmetry_equiv_pos_as_xyz
  1  'x, y, z'
loop_
 _atom_site_type_symbol
 _atom_site_label
 _atom_site_symmetry_multiplicity
 _atom_site_fract_x
 _atom_site_fract_y
 _atom_site_fract_z
 _atom_site_occupancy
  La  La1  1  0.637285  0.274572  0.362715  1.0
  La  La2  1  0.362715  0.725428  0.637285  1.0
  Mg  Mg3  1  0.000000  0.000000  0.000000  1.0
  O  O4  1  0.500000  0.000000  0.000000  1.0
  O  O5  1  0.000000  0.000000  0.500000  1.0
  O  O6  1  0.821360  0.642720  0.178640  1.0
  O  O7  1  0.178640  0.357280  0.821360  1.0
