# generated using pymatgen
data_Zr4In5Co2
_symmetry_space_group_name_H-M   'P 1'
_cell_length_a   3.30616319
_cell_length_b   7.54971441
_cell_length_c   9.10430426
_cell_angle_alpha   94.89787459
_cell_angle_beta   90.00000000
_cell_angle_gamma   90.00000000
_symmetry_Int_Tables_number   1
_chemical_formula_structural   Zr4In5Co2
_chemical_formula_sum   'Zr4 In5 Co2'
_cell_volume   226.41897944
_cell_formula_units_Z   1
loop_
 _symmetry_equiv_pos_site_id
 _symmetry_equiv_pos_as_xyz
  1  'x, y, z'
loop_
 _atom_site_type_symbol
 _atom_site_label
 _atom_site_symmetry_multiplicity
 _atom_site_fract_x
 _atom_site_fract_y
 _atom_site_fract_z
 _atom_site_occupancy
  Zr  Zr1  1  0.500000  0.200640  0.439942  1.0
  Zr  Zr2  1  0.500000  0.818503  0.158348  1.0
  Zr  Zr3  1  0.500000  0.799360  0.560058  1.0
  Zr  Zr4  1  0.500000  0.181497  0.841652  1.0
  In  In5  1  0.000000  0.457751  0.668470  1.0
  In  In6  1  0.000000  0.841757  0.857598  1.0
  In  In7  1  0.000000  0.500000  0.000000  1.0
  In  In8  1  0.000000  0.158243  0.142402  1.0
  In  In9  1  0.000000  0.542249  0.331530  1.0
  Co  Co10  1  0.000000  0.924067  0.366163  1.0
  Co  Co11  1  0.000000  0.075933  0.633837  1.0
