# generated using pymatgen
data_ErTlO2
_symmetry_space_group_name_H-M   'P 1'
_cell_length_a   3.46496872
_cell_length_b   6.80961973
_cell_length_c   3.46496864
_cell_angle_alpha   104.73905394
_cell_angle_beta   59.99999922
_cell_angle_gamma   104.73905406
_symmetry_Int_Tables_number   1
_chemical_formula_structural   ErTlO2
_chemical_formula_sum   'Er1 Tl1 O2'
_cell_volume   67.67884564
_cell_formula_units_Z   1
loop_
 _symmetry_equiv_pos_site_id
 _symmetry_equiv_pos_as_xyz
  1  'x, y, z'
loop_
 _atom_site_type_symbol
 _atom_site_label
 _atom_site_symmetry_multiplicity
 _atom_site_fract_x
 _atom_site_fract_y
 _atom_site_fract_z
 _atom_site_occupancy
  Er  Er1  1  0.500000  0.500000  0.500000  1.0
  Tl  Tl2  1  0.000000  0.000000  0.000000  1.0
  O  O3  1  0.223184  0.669552  0.223184  1.0
  O  O4  1  0.776816  0.330448  0.776816  1.0
