# generated using pymatgen
data_SiPd2
_symmetry_space_group_name_H-M   'P 1'
_cell_length_a   6.54286483
_cell_length_b   6.54286482
_cell_length_c   3.51761748
_cell_angle_alpha   90.00000000
_cell_angle_beta   90.00000000
_cell_angle_gamma   119.99902560
_symmetry_Int_Tables_number   1
_chemical_formula_structural   SiPd2
_chemical_formula_sum   'Si3 Pd6'
_cell_volume   130.41255465
_cell_formula_units_Z   3
loop_
 _symmetry_equiv_pos_site_id
 _symmetry_equiv_pos_as_xyz
  1  'x, y, z'
loop_
 _atom_site_type_symbol
 _atom_site_label
 _atom_site_symmetry_multiplicity
 _atom_site_fract_x
 _atom_site_fract_y
 _atom_site_fract_z
 _atom_site_occupancy
  Si  Si1  1  0.666692  0.333332  0.000000  1.0
  Si  Si2  1  0.333332  0.666692  0.000000  1.0
  Si  Si3  1  0.000032  0.000032  0.500000  1.0
  Pd  Pd4  1  0.734658  0.734658  0.000000  1.0
  Pd  Pd5  1  0.265371  0.000013  0.000000  1.0
  Pd  Pd6  1  0.000013  0.265371  0.000000  1.0
  Pd  Pd7  1  0.393892  0.393892  0.500000  1.0
  Pd  Pd8  1  0.606135  0.999975  0.500000  1.0
  Pd  Pd9  1  0.999975  0.606135  0.500000  1.0
