# generated using pymatgen
data_SnBiO4
_symmetry_space_group_name_H-M   'P 1'
_cell_length_a   6.22847693
_cell_length_b   4.19957739
_cell_length_c   4.19957739
_cell_angle_alpha   90.00000110
_cell_angle_beta   70.29806006
_cell_angle_gamma   70.29806006
_symmetry_Int_Tables_number   1
_chemical_formula_structural   SnBiO4
_chemical_formula_sum   'Sn1 Bi1 O4'
_cell_volume   96.55968678
_cell_formula_units_Z   1
loop_
 _symmetry_equiv_pos_site_id
 _symmetry_equiv_pos_as_xyz
  1  'x, y, z'
loop_
 _atom_site_type_symbol
 _atom_site_label
 _atom_site_symmetry_multiplicity
 _atom_site_fract_x
 _atom_site_fract_y
 _atom_site_fract_z
 _atom_site_occupancy
  Sn  Sn1  1  0.500000  0.250000  0.750000  1.0
  Bi  Bi2  1  0.000000  0.000000  0.000000  1.0
  O  O3  1  0.884202  0.057899  0.557899  1.0
  O  O4  1  0.420434  0.789783  0.789783  1.0
  O  O5  1  0.579566  0.210217  0.210217  1.0
  O  O6  1  0.115798  0.442101  0.942101  1.0
