# generated using pymatgen
data_NaTiS2
_symmetry_space_group_name_H-M   'P 1'
_cell_length_a   7.09234548
_cell_length_b   7.09234548
_cell_length_c   7.09234551
_cell_angle_alpha   29.12592890
_cell_angle_beta   29.12592890
_cell_angle_gamma   29.12592744
_symmetry_Int_Tables_number   1
_chemical_formula_structural   NaTiS2
_chemical_formula_sum   'Na1 Ti1 S2'
_cell_volume   74.76855782
_cell_formula_units_Z   1
loop_
 _symmetry_equiv_pos_site_id
 _symmetry_equiv_pos_as_xyz
  1  'x, y, z'
loop_
 _atom_site_type_symbol
 _atom_site_label
 _atom_site_symmetry_multiplicity
 _atom_site_fract_x
 _atom_site_fract_y
 _atom_site_fract_z
 _atom_site_occupancy
  Na  Na1  1  0.833152  0.833152  0.833152  1.0
  Ti  Ti2  1  0.002359  0.002359  0.002359  1.0
  S  S3  1  0.405114  0.405114  0.405114  1.0
  S  S4  1  0.599374  0.599374  0.599374  1.0
