# generated using pymatgen
data_FeO
_symmetry_space_group_name_H-M   'P 1'
_cell_length_a   3.39604862
_cell_length_b   3.41059188
_cell_length_c   10.71766797
_cell_angle_alpha   91.45136143
_cell_angle_beta   89.27127081
_cell_angle_gamma   120.14175588
_symmetry_Int_Tables_number   1
_chemical_formula_structural   FeO
_chemical_formula_sum   'Fe4 O4'
_cell_volume   107.31813130
_cell_formula_units_Z   4
loop_
 _symmetry_equiv_pos_site_id
 _symmetry_equiv_pos_as_xyz
  1  'x, y, z'
loop_
 _atom_site_type_symbol
 _atom_site_label
 _atom_site_symmetry_multiplicity
 _atom_site_fract_x
 _atom_site_fract_y
 _atom_site_fract_z
 _atom_site_occupancy
  Fe  Fe1  1  0.334978  0.665799  0.971742  1.0
  Fe  Fe2  1  0.996619  0.007341  0.223664  1.0
  Fe  Fe3  1  0.003381  0.010722  0.723664  1.0
  Fe  Fe4  1  0.665022  0.330822  0.471742  1.0
  O  O5  1  0.330629  0.667336  0.777449  1.0
  O  O6  1  0.003122  0.992299  0.527144  1.0
  O  O7  1  0.996878  0.989176  0.027144  1.0
  O  O8  1  0.669371  0.336707  0.277449  1.0
