# generated using pymatgen
data_SmTlO2
_symmetry_space_group_name_H-M   'P 1'
_cell_length_a   3.61156793
_cell_length_b   6.83631884
_cell_length_c   3.61156860
_cell_angle_alpha   105.31620054
_cell_angle_beta   59.99999691
_cell_angle_gamma   105.31619847
_symmetry_Int_Tables_number   1
_chemical_formula_structural   SmTlO2
_chemical_formula_sum   'Sm1 Tl1 O2'
_cell_volume   73.54292400
_cell_formula_units_Z   1
loop_
 _symmetry_equiv_pos_site_id
 _symmetry_equiv_pos_as_xyz
  1  'x, y, z'
loop_
 _atom_site_type_symbol
 _atom_site_label
 _atom_site_symmetry_multiplicity
 _atom_site_fract_x
 _atom_site_fract_y
 _atom_site_fract_z
 _atom_site_occupancy
  Sm  Sm1  1  0.500000  0.500000  0.500000  1.0
  Tl  Tl2  1  0.000000  0.000000  0.000000  1.0
  O  O3  1  0.225297  0.675891  0.225297  1.0
  O  O4  1  0.774703  0.324109  0.774703  1.0
