# generated using pymatgen
data_CuN6
_symmetry_space_group_name_H-M   'P 1'
_cell_length_a   3.11796095
_cell_length_b   9.18891171
_cell_length_c   13.60133841
_cell_angle_alpha   90.00000000
_cell_angle_beta   90.00000000
_cell_angle_gamma   90.00000000
_symmetry_Int_Tables_number   1
_chemical_formula_structural   CuN6
_chemical_formula_sum   'Cu4 N24'
_cell_volume   389.68742957
_cell_formula_units_Z   4
loop_
 _symmetry_equiv_pos_site_id
 _symmetry_equiv_pos_as_xyz
  1  'x, y, z'
loop_
 _atom_site_type_symbol
 _atom_site_label
 _atom_site_symmetry_multiplicity
 _atom_site_fract_x
 _atom_site_fract_y
 _atom_site_fract_z
 _atom_site_occupancy
  Cu  Cu1  1  0.750000  0.080840  0.104405  1.0
  Cu  Cu2  1  0.250000  0.919160  0.895595  1.0
  Cu  Cu3  1  0.750000  0.419160  0.604405  1.0
  Cu  Cu4  1  0.250000  0.580840  0.395595  1.0
  N  N5  1  0.250000  0.260470  0.969375  1.0
  N  N6  1  0.750000  0.329917  0.187759  1.0
  N  N7  1  0.250000  0.503436  0.678696  1.0
  N  N8  1  0.250000  0.347697  0.522235  1.0
  N  N9  1  0.250000  0.140293  0.416909  1.0
  N  N10  1  0.250000  0.996564  0.178696  1.0
  N  N11  1  0.750000  0.760470  0.530625  1.0
  N  N12  1  0.250000  0.589561  0.746858  1.0
  N  N13  1  0.250000  0.152303  0.022235  1.0
  N  N14  1  0.250000  0.670083  0.812241  1.0
  N  N15  1  0.750000  0.003436  0.821304  1.0
  N  N16  1  0.750000  0.640293  0.083091  1.0
  N  N17  1  0.750000  0.739530  0.030625  1.0
  N  N18  1  0.250000  0.910439  0.246858  1.0
  N  N19  1  0.750000  0.859707  0.583091  1.0
  N  N20  1  0.250000  0.829917  0.312241  1.0
  N  N21  1  0.750000  0.847697  0.977765  1.0
  N  N22  1  0.750000  0.170083  0.687759  1.0
  N  N23  1  0.750000  0.089561  0.753142  1.0
  N  N24  1  0.750000  0.410440  0.253142  1.0
  N  N25  1  0.250000  0.359707  0.916909  1.0
  N  N26  1  0.750000  0.496564  0.321304  1.0
  N  N27  1  0.750000  0.652303  0.477765  1.0
  N  N28  1  0.250000  0.239530  0.469375  1.0
