# generated using pymatgen
data_GeP3
_symmetry_space_group_name_H-M   'P 1'
_cell_length_a   5.30488440
_cell_length_b   5.30488441
_cell_length_c   5.30488441
_cell_angle_alpha   84.20363706
_cell_angle_beta   84.20363701
_cell_angle_gamma   84.20363709
_symmetry_Int_Tables_number   1
_chemical_formula_structural   GeP3
_chemical_formula_sum   'Ge2 P6'
_cell_volume   147.14331489
_cell_formula_units_Z   2
loop_
 _symmetry_equiv_pos_site_id
 _symmetry_equiv_pos_as_xyz
  1  'x, y, z'
loop_
 _atom_site_type_symbol
 _atom_site_label
 _atom_site_symmetry_multiplicity
 _atom_site_fract_x
 _atom_site_fract_y
 _atom_site_fract_z
 _atom_site_occupancy
  Ge  Ge1  1  0.736425  0.736425  0.736425  1.0
  Ge  Ge2  1  0.263575  0.263575  0.263575  1.0
  P  P3  1  0.211769  0.211769  0.737556  1.0
  P  P4  1  0.211769  0.737556  0.211769  1.0
  P  P5  1  0.788231  0.262444  0.788231  1.0
  P  P6  1  0.788231  0.788231  0.262444  1.0
  P  P7  1  0.262444  0.788231  0.788231  1.0
  P  P8  1  0.737556  0.211769  0.211769  1.0
