# generated using pymatgen
data_Sc3Bi3O11
_symmetry_space_group_name_H-M   'P 1'
_cell_length_a   9.68483022
_cell_length_b   9.68483022
_cell_length_c   9.68483022
_cell_angle_alpha   90.00000000
_cell_angle_beta   90.00000000
_cell_angle_gamma   90.00000000
_symmetry_Int_Tables_number   1
_chemical_formula_structural   Sc3Bi3O11
_chemical_formula_sum   'Sc12 Bi12 O44'
_cell_volume   908.39771927
_cell_formula_units_Z   4
loop_
 _symmetry_equiv_pos_site_id
 _symmetry_equiv_pos_as_xyz
  1  'x, y, z'
loop_
 _atom_site_type_symbol
 _atom_site_label
 _atom_site_symmetry_multiplicity
 _atom_site_fract_x
 _atom_site_fract_y
 _atom_site_fract_z
 _atom_site_occupancy
  Sc  Sc1  1  0.037249  0.250000  0.750000  1.0
  Sc  Sc2  1  0.250000  0.750000  0.462751  1.0
  Sc  Sc3  1  0.250000  0.750000  0.037249  1.0
  Sc  Sc4  1  0.250000  0.537249  0.750000  1.0
  Sc  Sc5  1  0.250000  0.962751  0.750000  1.0
  Sc  Sc6  1  0.462751  0.250000  0.750000  1.0
  Sc  Sc7  1  0.537249  0.750000  0.250000  1.0
  Sc  Sc8  1  0.750000  0.037249  0.250000  1.0
  Sc  Sc9  1  0.750000  0.250000  0.537249  1.0
  Sc  Sc10  1  0.750000  0.462751  0.250000  1.0
  Sc  Sc11  1  0.750000  0.250000  0.962751  1.0
  Sc  Sc12  1  0.962751  0.750000  0.250000  1.0
  Bi  Bi13  1  0.000000  0.000000  0.000000  1.0
  Bi  Bi14  1  0.000000  0.500000  0.500000  1.0
  Bi  Bi15  1  0.117503  0.117503  0.382496  1.0
  Bi  Bi16  1  0.117503  0.382496  0.117503  1.0
  Bi  Bi17  1  0.382496  0.117503  0.117503  1.0
  Bi  Bi18  1  0.382496  0.382496  0.382496  1.0
  Bi  Bi19  1  0.500000  0.000000  0.500000  1.0
  Bi  Bi20  1  0.500000  0.500000  0.000000  1.0
  Bi  Bi21  1  0.617503  0.617503  0.617503  1.0
  Bi  Bi22  1  0.617503  0.882497  0.882497  1.0
  Bi  Bi23  1  0.882497  0.617503  0.882497  1.0
  Bi  Bi24  1  0.882497  0.882497  0.617503  1.0
  O  O25  1  0.033564  0.755678  0.048294  1.0
  O  O26  1  0.033564  0.744322  0.451706  1.0
  O  O27  1  0.172669  0.750000  0.750000  1.0
  O  O28  1  0.048294  0.033564  0.755678  1.0
  O  O29  1  0.048294  0.466436  0.744322  1.0
  O  O30  1  0.148310  0.148310  0.148310  1.0
  O  O31  1  0.148310  0.351690  0.351690  1.0
  O  O32  1  0.244322  0.951706  0.966436  1.0
  O  O33  1  0.244322  0.548294  0.533564  1.0
  O  O34  1  0.250000  0.827331  0.250000  1.0
  O  O35  1  0.250000  0.672669  0.250000  1.0
  O  O36  1  0.250000  0.250000  0.672669  1.0
  O  O37  1  0.250000  0.250000  0.827331  1.0
  O  O38  1  0.255678  0.548294  0.966436  1.0
  O  O39  1  0.255678  0.951706  0.533564  1.0
  O  O40  1  0.351690  0.148310  0.351690  1.0
  O  O41  1  0.351690  0.351690  0.148310  1.0
  O  O42  1  0.451706  0.033564  0.744322  1.0
  O  O43  1  0.451706  0.466436  0.755678  1.0
  O  O44  1  0.327331  0.750000  0.750000  1.0
  O  O45  1  0.466436  0.744322  0.048294  1.0
  O  O46  1  0.466436  0.755678  0.451706  1.0
  O  O47  1  0.533564  0.244322  0.548294  1.0
  O  O48  1  0.533564  0.255678  0.951706  1.0
  O  O49  1  0.672669  0.250000  0.250000  1.0
  O  O50  1  0.548294  0.533564  0.244322  1.0
  O  O51  1  0.548294  0.966436  0.255678  1.0
  O  O52  1  0.648310  0.648310  0.851690  1.0
  O  O53  1  0.648310  0.851690  0.648310  1.0
  O  O54  1  0.744322  0.048294  0.466436  1.0
  O  O55  1  0.744322  0.451706  0.033564  1.0
  O  O56  1  0.750000  0.172669  0.750000  1.0
  O  O57  1  0.750000  0.327331  0.750000  1.0
  O  O58  1  0.750000  0.750000  0.172669  1.0
  O  O59  1  0.750000  0.750000  0.327331  1.0
  O  O60  1  0.755678  0.048294  0.033564  1.0
  O  O61  1  0.755678  0.451706  0.466436  1.0
  O  O62  1  0.851690  0.648310  0.648310  1.0
  O  O63  1  0.851690  0.851690  0.851690  1.0
  O  O64  1  0.951706  0.533564  0.255678  1.0
  O  O65  1  0.951706  0.966436  0.244322  1.0
  O  O66  1  0.827331  0.250000  0.250000  1.0
  O  O67  1  0.966436  0.244322  0.951706  1.0
  O  O68  1  0.966436  0.255678  0.548294  1.0
