# generated using pymatgen
data_Cs2BeO2
_symmetry_space_group_name_H-M   'P 1'
_cell_length_a   4.45354970
_cell_length_b   4.45354970
_cell_length_c   7.14923089
_cell_angle_alpha   71.85212943
_cell_angle_beta   71.85212943
_cell_angle_gamma   90.00000000
_symmetry_Int_Tables_number   1
_chemical_formula_structural   Cs2BeO2
_chemical_formula_sum   'Cs2 Be1 O2'
_cell_volume   127.30104937
_cell_formula_units_Z   1
loop_
 _symmetry_equiv_pos_site_id
 _symmetry_equiv_pos_as_xyz
  1  'x, y, z'
loop_
 _atom_site_type_symbol
 _atom_site_label
 _atom_site_symmetry_multiplicity
 _atom_site_fract_x
 _atom_site_fract_y
 _atom_site_fract_z
 _atom_site_occupancy
  Cs  Cs1  1  0.346217  0.346217  0.307565  1.0
  Cs  Cs2  1  0.653783  0.653783  0.692435  1.0
  Be  Be3  1  0.000000  0.000000  0.000000  1.0
  O  O4  1  0.112433  0.112433  0.775135  1.0
  O  O5  1  0.887567  0.887567  0.224865  1.0
