# generated using pymatgen
data_CdCu2O3
_symmetry_space_group_name_H-M   'P 1'
_cell_length_a   4.00179257
_cell_length_b   9.88852534
_cell_length_c   3.68022170
_cell_angle_alpha   90.00000000
_cell_angle_beta   90.00000000
_cell_angle_gamma   90.00000000
_symmetry_Int_Tables_number   1
_chemical_formula_structural   CdCu2O3
_chemical_formula_sum   'Cd2 Cu4 O6'
_cell_volume   145.63309729
_cell_formula_units_Z   2
loop_
 _symmetry_equiv_pos_site_id
 _symmetry_equiv_pos_as_xyz
  1  'x, y, z'
loop_
 _atom_site_type_symbol
 _atom_site_label
 _atom_site_symmetry_multiplicity
 _atom_site_fract_x
 _atom_site_fract_y
 _atom_site_fract_z
 _atom_site_occupancy
  Cd  Cd1  1  0.250000  0.250000  0.303623  1.0
  Cd  Cd2  1  0.750000  0.750000  0.696377  1.0
  Cu  Cu3  1  0.250000  0.584903  0.167882  1.0
  Cu  Cu4  1  0.250000  0.915097  0.167882  1.0
  Cu  Cu5  1  0.750000  0.084903  0.832118  1.0
  Cu  Cu6  1  0.750000  0.415097  0.832118  1.0
  O  O7  1  0.250000  0.750000  0.439405  1.0
  O  O8  1  0.250000  0.076570  0.876334  1.0
  O  O9  1  0.250000  0.423430  0.876334  1.0
  O  O10  1  0.750000  0.250000  0.560595  1.0
  O  O11  1  0.750000  0.576570  0.123666  1.0
  O  O12  1  0.750000  0.923430  0.123666  1.0
