# generated using pymatgen
data_Al2O3
_symmetry_space_group_name_H-M   'P 1'
_cell_length_a   13.84234104
_cell_length_b   2.91370935
_cell_length_c   7.11443813
_cell_angle_alpha   90.00000000
_cell_angle_beta   102.87767100
_cell_angle_gamma   90.00000000
_symmetry_Int_Tables_number   1
_chemical_formula_structural   Al2O3
_chemical_formula_sum   'Al12 O18'
_cell_volume   279.72632504
_cell_formula_units_Z   6
loop_
 _symmetry_equiv_pos_site_id
 _symmetry_equiv_pos_as_xyz
  1  'x, y, z'
loop_
 _atom_site_type_symbol
 _atom_site_label
 _atom_site_symmetry_multiplicity
 _atom_site_fract_x
 _atom_site_fract_y
 _atom_site_fract_z
 _atom_site_occupancy
  Al  Al1  1  0.027844  0.250000  0.173902  1.0
  Al  Al2  1  0.112743  0.250000  0.561730  1.0
  Al  Al3  1  0.212733  0.750000  0.197621  1.0
  Al  Al4  1  0.297612  0.750000  0.813170  1.0
  Al  Al5  1  0.412266  0.250000  0.533340  1.0
  Al  Al6  1  0.397570  0.250000  0.151336  1.0
  Al  Al7  1  0.602430  0.750000  0.848664  1.0
  Al  Al8  1  0.587734  0.750000  0.466660  1.0
  Al  Al9  1  0.702388  0.250000  0.186830  1.0
  Al  Al10  1  0.787267  0.250000  0.802379  1.0
  Al  Al11  1  0.887257  0.750000  0.438270  1.0
  Al  Al12  1  0.972156  0.750000  0.826098  1.0
  O  O13  1  0.002084  0.750000  0.342100  1.0
  O  O14  1  0.167777  0.750000  0.685303  1.0
  O  O15  1  0.077650  0.750000  0.041029  1.0
  O  O16  1  0.160302  0.250000  0.332954  1.0
  O  O17  1  0.329845  0.250000  0.694871  1.0
  O  O18  1  0.256798  0.250000  0.054582  1.0
  O  O19  1  0.345008  0.750000  0.357763  1.0
  O  O20  1  0.406773  0.750000  0.013262  1.0
  O  O21  1  0.495616  0.750000  0.646096  1.0
  O  O22  1  0.504384  0.250000  0.353904  1.0
  O  O23  1  0.593227  0.250000  0.986738  1.0
  O  O24  1  0.654992  0.250000  0.642237  1.0
  O  O25  1  0.743202  0.750000  0.945418  1.0
  O  O26  1  0.670155  0.750000  0.305129  1.0
  O  O27  1  0.839697  0.750000  0.667046  1.0
  O  O28  1  0.922350  0.250000  0.958971  1.0
  O  O29  1  0.832223  0.250000  0.314697  1.0
  O  O30  1  0.997916  0.250000  0.657900  1.0
