# generated using pymatgen
data_NaV2O4
_symmetry_space_group_name_H-M   'P 1'
_cell_length_a   5.09075789
_cell_length_b   6.05266202
_cell_length_c   11.47921692
_cell_angle_alpha   90.00032622
_cell_angle_beta   90.00427412
_cell_angle_gamma   90.00025161
_symmetry_Int_Tables_number   1
_chemical_formula_structural   NaV2O4
_chemical_formula_sum   'Na4 V8 O16'
_cell_volume   353.70494225
_cell_formula_units_Z   4
loop_
 _symmetry_equiv_pos_site_id
 _symmetry_equiv_pos_as_xyz
  1  'x, y, z'
loop_
 _atom_site_type_symbol
 _atom_site_label
 _atom_site_symmetry_multiplicity
 _atom_site_fract_x
 _atom_site_fract_y
 _atom_site_fract_z
 _atom_site_occupancy
  Na  Na1  1  0.026496  0.750005  0.250008  1.0
  Na  Na2  1  0.352416  0.750015  0.749972  1.0
  Na  Na3  1  0.647623  0.249983  0.249998  1.0
  Na  Na4  1  0.973518  0.249996  0.750014  1.0
  V  V5  1  0.010599  0.250007  0.007891  1.0
  V  V6  1  0.989424  0.749994  0.992106  1.0
  V  V7  1  0.010569  0.249998  0.492073  1.0
  V  V8  1  0.989399  0.750000  0.507916  1.0
  V  V9  1  0.500000  0.499999  0.999993  1.0
  V  V10  1  0.500007  0.000001  0.999991  1.0
  V  V11  1  0.500003  0.000019  0.500015  1.0
  V  V12  1  0.500005  0.499978  0.500016  1.0
  O  O13  1  0.158277  0.003019  0.593190  1.0
  O  O14  1  0.158277  0.002996  0.906823  1.0
  O  O15  1  0.158277  0.496982  0.593187  1.0
  O  O16  1  0.158266  0.497005  0.906821  1.0
  O  O17  1  0.323759  0.250004  0.094058  1.0
  O  O18  1  0.323738  0.249993  0.405907  1.0
  O  O19  1  0.314086  0.749998  0.084001  1.0
  O  O20  1  0.314050  0.749994  0.416016  1.0
  O  O21  1  0.685913  0.250006  0.584012  1.0
  O  O22  1  0.685915  0.250002  0.915995  1.0
  O  O23  1  0.676261  0.750010  0.594064  1.0
  O  O24  1  0.676247  0.749996  0.905946  1.0
  O  O25  1  0.841705  0.997003  0.406819  1.0
  O  O26  1  0.841706  0.502995  0.406822  1.0
  O  O27  1  0.841726  0.997012  0.093171  1.0
  O  O28  1  0.841738  0.502989  0.093174  1.0
