# generated using pymatgen
data_Fe(BW)2
_symmetry_space_group_name_H-M   'P 1'
_cell_length_a   3.23393637
_cell_length_b   5.69061688
_cell_length_c   5.69061688
_cell_angle_alpha   90.00000000
_cell_angle_beta   90.00000000
_cell_angle_gamma   90.00000000
_symmetry_Int_Tables_number   1
_chemical_formula_structural   Fe(BW)2
_chemical_formula_sum   'Fe2 B4 W4'
_cell_volume   104.72495108
_cell_formula_units_Z   2
loop_
 _symmetry_equiv_pos_site_id
 _symmetry_equiv_pos_as_xyz
  1  'x, y, z'
loop_
 _atom_site_type_symbol
 _atom_site_label
 _atom_site_symmetry_multiplicity
 _atom_site_fract_x
 _atom_site_fract_y
 _atom_site_fract_z
 _atom_site_occupancy
  Fe  Fe1  1  0.000000  0.000000  0.000000  1.0
  Fe  Fe2  1  0.000000  0.500000  0.500000  1.0
  B  B3  1  0.000000  0.384190  0.884190  1.0
  B  B4  1  0.000000  0.115810  0.384190  1.0
  B  B5  1  0.000000  0.615810  0.115810  1.0
  B  B6  1  0.000000  0.884190  0.615810  1.0
  W  W7  1  0.500000  0.322090  0.177910  1.0
  W  W8  1  0.500000  0.177910  0.677910  1.0
  W  W9  1  0.500000  0.822090  0.322090  1.0
  W  W10  1  0.500000  0.677910  0.822090  1.0
