# generated using pymatgen
data_Fe3C
_symmetry_space_group_name_H-M   'P 1'
_cell_length_a   4.65716427
_cell_length_b   5.04730023
_cell_length_c   7.04132907
_cell_angle_alpha   90.00000000
_cell_angle_beta   90.00000000
_cell_angle_gamma   90.00000000
_symmetry_Int_Tables_number   1
_chemical_formula_structural   Fe3C
_chemical_formula_sum   'Fe12 C4'
_cell_volume   165.51422955
_cell_formula_units_Z   4
loop_
 _symmetry_equiv_pos_site_id
 _symmetry_equiv_pos_as_xyz
  1  'x, y, z'
loop_
 _atom_site_type_symbol
 _atom_site_label
 _atom_site_symmetry_multiplicity
 _atom_site_fract_x
 _atom_site_fract_y
 _atom_site_fract_z
 _atom_site_occupancy
  Fe  Fe1  1  0.347294  0.168636  0.422478  1.0
  Fe  Fe2  1  0.152706  0.668636  0.077522  1.0
  Fe  Fe3  1  0.847294  0.331364  0.922478  1.0
  Fe  Fe4  1  0.339664  0.450209  0.750000  1.0
  Fe  Fe5  1  0.152706  0.668636  0.422478  1.0
  Fe  Fe6  1  0.347294  0.168636  0.077522  1.0
  Fe  Fe7  1  0.160336  0.950209  0.750000  1.0
  Fe  Fe8  1  0.652706  0.831364  0.922478  1.0
  Fe  Fe9  1  0.847294  0.331364  0.577522  1.0
  Fe  Fe10  1  0.660336  0.549791  0.250000  1.0
  Fe  Fe11  1  0.652706  0.831364  0.577522  1.0
  Fe  Fe12  1  0.839664  0.049791  0.250000  1.0
  C  C13  1  0.000000  0.000000  0.500000  1.0
  C  C14  1  0.500000  0.500000  0.500000  1.0
  C  C15  1  0.500000  0.500000  0.000000  1.0
  C  C16  1  0.000000  0.000000  0.000000  1.0
