# generated using pymatgen
data_CuAg3
_symmetry_space_group_name_H-M   'P 1'
_cell_length_a   5.74601704
_cell_length_b   5.74601715
_cell_length_c   4.63982318
_cell_angle_alpha   90.00000000
_cell_angle_beta   90.00000000
_cell_angle_gamma   120.00000547
_symmetry_Int_Tables_number   1
_chemical_formula_structural   CuAg3
_chemical_formula_sum   'Cu2 Ag6'
_cell_volume   132.66790327
_cell_formula_units_Z   2
loop_
 _symmetry_equiv_pos_site_id
 _symmetry_equiv_pos_as_xyz
  1  'x, y, z'
loop_
 _atom_site_type_symbol
 _atom_site_label
 _atom_site_symmetry_multiplicity
 _atom_site_fract_x
 _atom_site_fract_y
 _atom_site_fract_z
 _atom_site_occupancy
  Cu  Cu1  1  0.333334  0.666669  0.750002  1.0
  Cu  Cu2  1  0.666666  0.333332  0.250002  1.0
  Ag  Ag3  1  0.169397  0.338795  0.250002  1.0
  Ag  Ag4  1  0.661207  0.830604  0.250002  1.0
  Ag  Ag5  1  0.169397  0.830604  0.250002  1.0
  Ag  Ag6  1  0.830603  0.661206  0.750002  1.0
  Ag  Ag7  1  0.338794  0.169397  0.750002  1.0
  Ag  Ag8  1  0.830604  0.169397  0.750002  1.0
