# generated using pymatgen
data_YTlO2
_symmetry_space_group_name_H-M   'P 1'
_cell_length_a   3.51246168
_cell_length_b   6.80953865
_cell_length_c   3.51246210
_cell_angle_alpha   104.94594063
_cell_angle_beta   59.99999453
_cell_angle_gamma   104.94593893
_symmetry_Int_Tables_number   1
_chemical_formula_structural   YTlO2
_chemical_formula_sum   'Y1 Tl1 O2'
_cell_volume   69.45523539
_cell_formula_units_Z   1
loop_
 _symmetry_equiv_pos_site_id
 _symmetry_equiv_pos_as_xyz
  1  'x, y, z'
loop_
 _atom_site_type_symbol
 _atom_site_label
 _atom_site_symmetry_multiplicity
 _atom_site_fract_x
 _atom_site_fract_y
 _atom_site_fract_z
 _atom_site_occupancy
  Y  Y1  1  0.500000  0.500000  0.500000  1.0
  Tl  Tl2  1  0.000000  0.000000  0.000000  1.0
  O  O3  1  0.224316  0.672950  0.224316  1.0
  O  O4  1  0.775684  0.327050  0.775684  1.0
