# generated using pymatgen
data_Pb(SN)2
_symmetry_space_group_name_H-M   'P 1'
_cell_length_a   4.46458937
_cell_length_b   7.83525276
_cell_length_c   12.57081438
_cell_angle_alpha   89.99434988
_cell_angle_beta   90.00088627
_cell_angle_gamma   89.99862604
_symmetry_Int_Tables_number   1
_chemical_formula_structural   Pb(SN)2
_chemical_formula_sum   'Pb4 S8 N8'
_cell_volume   439.74199599
_cell_formula_units_Z   4
loop_
 _symmetry_equiv_pos_site_id
 _symmetry_equiv_pos_as_xyz
  1  'x, y, z'
loop_
 _atom_site_type_symbol
 _atom_site_label
 _atom_site_symmetry_multiplicity
 _atom_site_fract_x
 _atom_site_fract_y
 _atom_site_fract_z
 _atom_site_occupancy
  Pb  Pb1  1  0.622345  0.354304  0.879144  1.0
  Pb  Pb2  1  0.377650  0.854281  0.620868  1.0
  Pb  Pb3  1  0.877622  0.645699  0.379145  1.0
  Pb  Pb4  1  0.122344  0.145712  0.120857  1.0
  S  S5  1  0.434064  0.403460  0.226097  1.0
  S  S6  1  0.117154  0.575115  0.058377  1.0
  S  S7  1  0.565978  0.903453  0.273891  1.0
  S  S8  1  0.617269  0.924804  0.941575  1.0
  S  S9  1  0.065904  0.596534  0.726081  1.0
  S  S10  1  0.382915  0.424951  0.558317  1.0
  S  S11  1  0.883008  0.074977  0.441697  1.0
  S  S12  1  0.934118  0.096580  0.773928  1.0
  N  N13  1  0.987697  0.896708  0.480830  1.0
  N  N14  1  0.172828  0.420652  0.659006  1.0
  N  N15  1  0.012188  0.396516  0.019142  1.0
  N  N16  1  0.827126  0.920674  0.841072  1.0
  N  N17  1  0.512087  0.103585  0.980887  1.0
  N  N18  1  0.487762  0.603325  0.519158  1.0
  N  N19  1  0.327160  0.579346  0.158980  1.0
  N  N20  1  0.672781  0.079325  0.340949  1.0
