# generated using pymatgen
data_Li3NiOF3
_symmetry_space_group_name_H-M   'P 1'
_cell_length_a   2.90949347
_cell_length_b   2.90948068
_cell_length_c   8.31765545
_cell_angle_alpha   90.00000474
_cell_angle_beta   90.00005550
_cell_angle_gamma   89.99981452
_symmetry_Int_Tables_number   1
_chemical_formula_structural   Li3NiOF3
_chemical_formula_sum   'Li3 Ni1 O1 F3'
_cell_volume   70.40991024
_cell_formula_units_Z   1
loop_
 _symmetry_equiv_pos_site_id
 _symmetry_equiv_pos_as_xyz
  1  'x, y, z'
loop_
 _atom_site_type_symbol
 _atom_site_label
 _atom_site_symmetry_multiplicity
 _atom_site_fract_x
 _atom_site_fract_y
 _atom_site_fract_z
 _atom_site_occupancy
  Li  Li1  1  0.500055  0.500057  0.251407  1.0
  Li  Li2  1  0.000070  0.000071  0.500000  1.0
  Li  Li3  1  0.500054  0.500057  0.748593  1.0
  Ni  Ni4  1  0.999790  0.999780  0.000004  1.0
  O  O5  1  0.499887  0.499884  0.000000  1.0
  F  F6  1  0.000061  0.000062  0.259762  1.0
  F  F7  1  0.500026  0.500027  0.499999  1.0
  F  F8  1  0.000057  0.000063  0.740237  1.0
