# generated using pymatgen
data_ScCoC2
_symmetry_space_group_name_H-M   'P 1'
_cell_length_a   3.36719705
_cell_length_b   3.36714812
_cell_length_c   7.16759555
_cell_angle_alpha   89.99975638
_cell_angle_beta   89.99975767
_cell_angle_gamma   89.99969303
_symmetry_Int_Tables_number   1
_chemical_formula_structural   ScCoC2
_chemical_formula_sum   'Sc2 Co2 C4'
_cell_volume   81.26513192
_cell_formula_units_Z   2
loop_
 _symmetry_equiv_pos_site_id
 _symmetry_equiv_pos_as_xyz
  1  'x, y, z'
loop_
 _atom_site_type_symbol
 _atom_site_label
 _atom_site_symmetry_multiplicity
 _atom_site_fract_x
 _atom_site_fract_y
 _atom_site_fract_z
 _atom_site_occupancy
  Sc  Sc1  1  0.249998  0.250002  0.654401  1.0
  Sc  Sc2  1  0.750002  0.750001  0.345599  1.0
  Co  Co3  1  0.250000  0.750003  0.000000  1.0
  Co  Co4  1  0.749998  0.249999  0.000001  1.0
  C  C5  1  0.750002  0.749998  0.849665  1.0
  C  C6  1  0.249994  0.249999  0.347013  1.0
  C  C7  1  0.249999  0.250000  0.150335  1.0
  C  C8  1  0.750008  0.749998  0.652986  1.0
