# generated using pymatgen
data_LiCuO
_symmetry_space_group_name_H-M   'P 1'
_cell_length_a   3.49430147
_cell_length_b   4.88984088
_cell_length_c   4.81092403
_cell_angle_alpha   90.00000000
_cell_angle_beta   90.00000000
_cell_angle_gamma   110.93461111
_symmetry_Int_Tables_number   1
_chemical_formula_structural   LiCuO
_chemical_formula_sum   'Li2 Cu2 O2'
_cell_volume   76.77596224
_cell_formula_units_Z   2
loop_
 _symmetry_equiv_pos_site_id
 _symmetry_equiv_pos_as_xyz
  1  'x, y, z'
loop_
 _atom_site_type_symbol
 _atom_site_label
 _atom_site_symmetry_multiplicity
 _atom_site_fract_x
 _atom_site_fract_y
 _atom_site_fract_z
 _atom_site_occupancy
  Li  Li1  1  0.272924  0.545848  0.250000  1.0
  Li  Li2  1  0.727076  0.454152  0.750000  1.0
  Cu  Cu3  1  0.000000  0.000000  0.000000  1.0
  Cu  Cu4  1  0.000000  0.000000  0.500000  1.0
  O  O5  1  0.153805  0.307610  0.750000  1.0
  O  O6  1  0.846195  0.692390  0.250000  1.0
