# generated using pymatgen
data_VOF
_symmetry_space_group_name_H-M   'P 1'
_cell_length_a   3.44094177
_cell_length_b   3.44095660
_cell_length_c   6.34115370
_cell_angle_alpha   74.25729037
_cell_angle_beta   90.00010087
_cell_angle_gamma   60.00039056
_symmetry_Int_Tables_number   1
_chemical_formula_structural   VOF
_chemical_formula_sum   'V2 O2 F2'
_cell_volume   61.74816018
_cell_formula_units_Z   2
loop_
 _symmetry_equiv_pos_site_id
 _symmetry_equiv_pos_as_xyz
  1  'x, y, z'
loop_
 _atom_site_type_symbol
 _atom_site_label
 _atom_site_symmetry_multiplicity
 _atom_site_fract_x
 _atom_site_fract_y
 _atom_site_fract_z
 _atom_site_occupancy
  V  V1  1  0.760514  0.478972  0.281549  1.0
  V  V2  1  0.239486  0.521028  0.718452  1.0
  O  O3  1  0.875080  0.249843  0.625213  1.0
  O  O4  1  0.124920  0.750157  0.374787  1.0
  F  F5  1  0.626658  0.746684  0.879933  1.0
  F  F6  1  0.373342  0.253316  0.120067  1.0
