# generated using pymatgen
data_SrEuO2
_symmetry_space_group_name_H-M   'P 1'
_cell_length_a   3.63635783
_cell_length_b   6.32491553
_cell_length_c   3.63635740
_cell_angle_alpha   106.70612970
_cell_angle_beta   59.99999614
_cell_angle_gamma   106.70612767
_symmetry_Int_Tables_number   1
_chemical_formula_structural   SrEuO2
_chemical_formula_sum   'Sr1 Eu1 O2'
_cell_volume   68.32342264
_cell_formula_units_Z   1
loop_
 _symmetry_equiv_pos_site_id
 _symmetry_equiv_pos_as_xyz
  1  'x, y, z'
loop_
 _atom_site_type_symbol
 _atom_site_label
 _atom_site_symmetry_multiplicity
 _atom_site_fract_x
 _atom_site_fract_y
 _atom_site_fract_z
 _atom_site_occupancy
  Sr  Sr1  1  0.000000  0.000000  0.000000  1.0
  Eu  Eu2  1  0.500000  0.500000  0.500000  1.0
  O  O3  1  0.247865  0.743597  0.247865  1.0
  O  O4  1  0.752135  0.256403  0.752135  1.0
