# generated using pymatgen
data_C
_symmetry_space_group_name_H-M   'P 1'
_cell_length_a   2.52325158
_cell_length_b   2.52325187
_cell_length_c   16.55991221
_cell_angle_alpha   90.00000000
_cell_angle_beta   90.00000000
_cell_angle_gamma   119.99999624
_symmetry_Int_Tables_number   1
_chemical_formula_structural   C
_chemical_formula_sum   C16
_cell_volume   91.30821146
_cell_formula_units_Z   16
loop_
 _symmetry_equiv_pos_site_id
 _symmetry_equiv_pos_as_xyz
  1  'x, y, z'
loop_
 _atom_site_type_symbol
 _atom_site_label
 _atom_site_symmetry_multiplicity
 _atom_site_fract_x
 _atom_site_fract_y
 _atom_site_fract_z
 _atom_site_occupancy
  C  C1  1  0.000000  0.000000  0.953187  1.0
  C  C2  1  0.666667  0.333333  0.297321  1.0
  C  C3  1  0.333333  0.666667  0.797321  1.0
  C  C4  1  0.666667  0.333333  0.202679  1.0
  C  C5  1  0.333333  0.666667  0.077931  1.0
  C  C6  1  0.333333  0.666667  0.328685  1.0
  C  C7  1  0.333333  0.666667  0.422069  1.0
  C  C8  1  0.666667  0.333333  0.671315  1.0
  C  C9  1  0.333333  0.666667  0.702679  1.0
  C  C10  1  0.000000  0.000000  0.453187  1.0
  C  C11  1  0.000000  0.000000  0.046813  1.0
  C  C12  1  0.333333  0.666667  0.171315  1.0
  C  C13  1  0.666667  0.333333  0.828685  1.0
  C  C14  1  0.000000  0.000000  0.546813  1.0
  C  C15  1  0.666667  0.333333  0.577931  1.0
  C  C16  1  0.666667  0.333333  0.922069  1.0
