# generated using pymatgen
data_MnB
_symmetry_space_group_name_H-M   'P 1'
_cell_length_a   3.96080911
_cell_length_b   6.77008467
_cell_length_c   6.77008467
_cell_angle_alpha   90.00000000
_cell_angle_beta   90.00000000
_cell_angle_gamma   90.00000000
_symmetry_Int_Tables_number   1
_chemical_formula_structural   MnB
_chemical_formula_sum   'Mn8 B8'
_cell_volume   181.53990868
_cell_formula_units_Z   8
loop_
 _symmetry_equiv_pos_site_id
 _symmetry_equiv_pos_as_xyz
  1  'x, y, z'
loop_
 _atom_site_type_symbol
 _atom_site_label
 _atom_site_symmetry_multiplicity
 _atom_site_fract_x
 _atom_site_fract_y
 _atom_site_fract_z
 _atom_site_occupancy
  Mn  Mn1  1  0.371255  0.623719  0.876281  1.0
  Mn  Mn2  1  0.628745  0.376281  0.123719  1.0
  Mn  Mn3  1  0.871255  0.876281  0.876281  1.0
  Mn  Mn4  1  0.128745  0.376281  0.376281  1.0
  Mn  Mn5  1  0.371255  0.876281  0.623719  1.0
  Mn  Mn6  1  0.128745  0.123719  0.123719  1.0
  Mn  Mn7  1  0.871255  0.623719  0.623719  1.0
  Mn  Mn8  1  0.628745  0.123719  0.376281  1.0
  B  B9  1  0.632697  0.069492  0.069492  1.0
  B  B10  1  0.367303  0.569492  0.569492  1.0
  B  B11  1  0.367303  0.930508  0.930508  1.0
  B  B12  1  0.867303  0.930508  0.569492  1.0
  B  B13  1  0.132697  0.069492  0.430508  1.0
  B  B14  1  0.132697  0.430508  0.069492  1.0
  B  B15  1  0.867303  0.569492  0.930508  1.0
  B  B16  1  0.632697  0.430508  0.430508  1.0
