# generated using pymatgen
data_Ba3Zr2O7
_symmetry_space_group_name_H-M   'P 1'
_cell_length_a   4.25684360
_cell_length_b   11.44932795
_cell_length_c   4.25684360
_cell_angle_alpha   79.28643323
_cell_angle_beta   90.00000000
_cell_angle_gamma   100.71356677
_symmetry_Int_Tables_number   1
_chemical_formula_structural   Ba3Zr2O7
_chemical_formula_sum   'Ba3 Zr2 O7'
_cell_volume   200.17180889
_cell_formula_units_Z   1
loop_
 _symmetry_equiv_pos_site_id
 _symmetry_equiv_pos_as_xyz
  1  'x, y, z'
loop_
 _atom_site_type_symbol
 _atom_site_label
 _atom_site_symmetry_multiplicity
 _atom_site_fract_x
 _atom_site_fract_y
 _atom_site_fract_z
 _atom_site_occupancy
  Ba  Ba1  1  0.000000  0.000000  0.000000  1.0
  Ba  Ba2  1  0.814476  0.628953  0.185524  1.0
  Ba  Ba3  1  0.185524  0.371047  0.814476  1.0
  Zr  Zr4  1  0.597365  0.194731  0.402635  1.0
  Zr  Zr5  1  0.402635  0.805269  0.597365  1.0
  O  O6  1  0.096193  0.192385  0.403807  1.0
  O  O7  1  0.500000  0.000000  0.500000  1.0
  O  O8  1  0.693189  0.386377  0.306811  1.0
  O  O9  1  0.403807  0.807615  0.096193  1.0
  O  O10  1  0.596193  0.192385  0.903807  1.0
  O  O11  1  0.306811  0.613623  0.693189  1.0
  O  O12  1  0.903807  0.807615  0.596193  1.0
