# generated using pymatgen
data_LiVF4
_symmetry_space_group_name_H-M   'P 1'
_cell_length_a   3.12534066
_cell_length_b   6.32235581
_cell_length_c   9.39602564
_cell_angle_alpha   34.39039191
_cell_angle_beta   80.72674385
_cell_angle_gamma   60.43287322
_symmetry_Int_Tables_number   1
_chemical_formula_structural   LiVF4
_chemical_formula_sum   'Li1 V1 F4'
_cell_volume   78.94653639
_cell_formula_units_Z   1
loop_
 _symmetry_equiv_pos_site_id
 _symmetry_equiv_pos_as_xyz
  1  'x, y, z'
loop_
 _atom_site_type_symbol
 _atom_site_label
 _atom_site_symmetry_multiplicity
 _atom_site_fract_x
 _atom_site_fract_y
 _atom_site_fract_z
 _atom_site_occupancy
  Li  Li1  1  0.024566  0.499749  0.000231  1.0
  V  V2  1  0.018626  0.000689  0.999752  1.0
  F  F3  1  0.606328  0.793014  0.231115  1.0
  F  F4  1  0.521775  0.581352  0.817215  1.0
  F  F5  1  0.431450  0.207383  0.768296  1.0
  F  F6  1  0.520743  0.417813  0.183391  1.0
