# generated using pymatgen
data_NaCu3O4
_symmetry_space_group_name_H-M   'P 1'
_cell_length_a   5.45593025
_cell_length_b   6.07642492
_cell_length_c   3.51214683
_cell_angle_alpha   89.93012988
_cell_angle_beta   89.98104691
_cell_angle_gamma   63.07823343
_symmetry_Int_Tables_number   1
_chemical_formula_structural   NaCu3O4
_chemical_formula_sum   'Na1 Cu3 O4'
_cell_volume   103.81779385
_cell_formula_units_Z   1
loop_
 _symmetry_equiv_pos_site_id
 _symmetry_equiv_pos_as_xyz
  1  'x, y, z'
loop_
 _atom_site_type_symbol
 _atom_site_label
 _atom_site_symmetry_multiplicity
 _atom_site_fract_x
 _atom_site_fract_y
 _atom_site_fract_z
 _atom_site_occupancy
  Na  Na1  1  0.002485  0.004290  0.495317  1.0
  Cu  Cu2  1  0.242814  0.513085  0.998783  1.0
  Cu  Cu3  1  0.758958  0.480771  0.991304  1.0
  Cu  Cu4  1  0.501863  0.995875  0.008857  1.0
  O  O5  1  0.394022  0.735951  0.991653  1.0
  O  O6  1  0.868080  0.734855  0.988356  1.0
  O  O7  1  0.133937  0.257698  0.002595  1.0
  O  O8  1  0.608338  0.257610  0.991952  1.0
