# generated using pymatgen
data_LiNiO2
_symmetry_space_group_name_H-M   'P 1'
_cell_length_a   4.99209716
_cell_length_b   5.81369382
_cell_length_c   6.50577970
_cell_angle_alpha   102.98356875
_cell_angle_beta   97.63717086
_cell_angle_gamma   105.76109109
_symmetry_Int_Tables_number   1
_chemical_formula_structural   LiNiO2
_chemical_formula_sum   'Li5 Ni5 O10'
_cell_volume   173.24235475
_cell_formula_units_Z   5
loop_
 _symmetry_equiv_pos_site_id
 _symmetry_equiv_pos_as_xyz
  1  'x, y, z'
loop_
 _atom_site_type_symbol
 _atom_site_label
 _atom_site_symmetry_multiplicity
 _atom_site_fract_x
 _atom_site_fract_y
 _atom_site_fract_z
 _atom_site_occupancy
  Li  Li1  1  0.200042  0.400004  0.399937  1.0
  Li  Li2  1  0.401582  0.799326  0.796987  1.0
  Li  Li3  1  0.595230  0.195322  0.197090  1.0
  Li  Li4  1  0.804763  0.604720  0.602921  1.0
  Li  Li5  1  0.998495  0.000749  0.003109  1.0
  Ni  Ni6  1  0.601270  0.702277  0.199464  1.0
  Ni  Ni7  1  0.798658  0.097675  0.600482  1.0
  Ni  Ni8  1  0.001467  0.501133  0.999838  1.0
  Ni  Ni9  1  0.199930  0.899969  0.399879  1.0
  Ni  Ni10  1  0.398562  0.298898  0.800243  1.0
  O  O11  1  0.105262  0.950772  0.676875  1.0
  O  O12  1  0.109806  0.438805  0.719096  1.0
  O  O13  1  0.294815  0.849296  0.123119  1.0
  O  O14  1  0.290178  0.361228  0.081091  1.0
  O  O15  1  0.484734  0.762626  0.489866  1.0
  O  O16  1  0.478060  0.224368  0.504689  1.0
  O  O17  1  0.712621  0.633551  0.904177  1.0
  O  O18  1  0.687280  0.166276  0.895792  1.0
  O  O19  1  0.921916  0.575614  0.295234  1.0
  O  O20  1  0.915265  0.037324  0.310068  1.0
