# generated using pymatgen
data_Bi2AuO5
_symmetry_space_group_name_H-M   'P 1'
_cell_length_a   5.87814943
_cell_length_b   8.75778178
_cell_length_c   8.75778178
_cell_angle_alpha   90.00000000
_cell_angle_beta   90.00000000
_cell_angle_gamma   90.00000000
_symmetry_Int_Tables_number   1
_chemical_formula_structural   Bi2AuO5
_chemical_formula_sum   'Bi8 Au4 O20'
_cell_volume   450.84666484
_cell_formula_units_Z   4
loop_
 _symmetry_equiv_pos_site_id
 _symmetry_equiv_pos_as_xyz
  1  'x, y, z'
loop_
 _atom_site_type_symbol
 _atom_site_label
 _atom_site_symmetry_multiplicity
 _atom_site_fract_x
 _atom_site_fract_y
 _atom_site_fract_z
 _atom_site_occupancy
  Bi  Bi1  1  0.250000  0.397571  0.602429  1.0
  Bi  Bi2  1  0.750000  0.897571  0.102429  1.0
  Bi  Bi3  1  0.750000  0.397571  0.897571  1.0
  Bi  Bi4  1  0.250000  0.102429  0.897571  1.0
  Bi  Bi5  1  0.250000  0.602429  0.102429  1.0
  Bi  Bi6  1  0.750000  0.602429  0.397571  1.0
  Bi  Bi7  1  0.750000  0.102429  0.602429  1.0
  Bi  Bi8  1  0.250000  0.897571  0.397571  1.0
  Au  Au9  1  0.406430  0.750000  0.750000  1.0
  Au  Au10  1  0.906430  0.750000  0.750000  1.0
  Au  Au11  1  0.093570  0.250000  0.250000  1.0
  Au  Au12  1  0.593570  0.250000  0.250000  1.0
  O  O13  1  0.607474  0.034962  0.330091  1.0
  O  O14  1  0.107474  0.034962  0.169909  1.0
  O  O15  1  0.607474  0.465038  0.169909  1.0
  O  O16  1  0.892526  0.669909  0.965038  1.0
  O  O17  1  0.607474  0.330091  0.465038  1.0
  O  O18  1  0.892526  0.534962  0.669909  1.0
  O  O19  1  0.392526  0.965038  0.669909  1.0
  O  O20  1  0.107474  0.330091  0.034962  1.0
  O  O21  1  0.392526  0.669909  0.534962  1.0
  O  O22  1  0.892526  0.965038  0.830091  1.0
  O  O23  1  0.000000  0.250000  0.750000  1.0
  O  O24  1  0.500000  0.250000  0.750000  1.0
  O  O25  1  0.607474  0.169909  0.034962  1.0
  O  O26  1  0.107474  0.465038  0.330091  1.0
  O  O27  1  0.892526  0.830091  0.534962  1.0
  O  O28  1  0.392526  0.534962  0.830091  1.0
  O  O29  1  0.107474  0.169909  0.465038  1.0
  O  O30  1  0.000000  0.750000  0.250000  1.0
  O  O31  1  0.500000  0.750000  0.250000  1.0
  O  O32  1  0.392526  0.830091  0.965038  1.0
