# generated using pymatgen
data_NbVO4
_symmetry_space_group_name_H-M   'P 1'
_cell_length_a   4.96015830
_cell_length_b   6.27118753
_cell_length_c   4.96015830
_cell_angle_alpha   66.70458445
_cell_angle_beta   90.00000000
_cell_angle_gamma   113.29541545
_symmetry_Int_Tables_number   1
_chemical_formula_structural   NbVO4
_chemical_formula_sum   'Nb2 V2 O8'
_cell_volume   127.90385376
_cell_formula_units_Z   2
loop_
 _symmetry_equiv_pos_site_id
 _symmetry_equiv_pos_as_xyz
  1  'x, y, z'
loop_
 _atom_site_type_symbol
 _atom_site_label
 _atom_site_symmetry_multiplicity
 _atom_site_fract_x
 _atom_site_fract_y
 _atom_site_fract_z
 _atom_site_occupancy
  Nb  Nb1  1  0.875000  0.250000  0.375000  1.0
  Nb  Nb2  1  0.125000  0.750000  0.625000  1.0
  V  V3  1  0.625000  0.750000  0.125000  1.0
  V  V4  1  0.375000  0.250000  0.875000  1.0
  O  O5  1  0.051059  0.071294  0.228258  1.0
  O  O6  1  0.271742  0.571294  0.979765  1.0
  O  O7  1  0.799553  0.571294  0.448941  1.0
  O  O8  1  0.479765  0.928706  0.299553  1.0
  O  O9  1  0.520235  0.071294  0.700447  1.0
  O  O10  1  0.200447  0.428706  0.551059  1.0
  O  O11  1  0.728258  0.428706  0.020235  1.0
  O  O12  1  0.948941  0.928706  0.771742  1.0
