# generated using pymatgen
data_Li2FeS2
_symmetry_space_group_name_H-M   'P 1'
_cell_length_a   5.76954157
_cell_length_b   8.15845965
_cell_length_c   5.69081611
_cell_angle_alpha   90.10724494
_cell_angle_beta   90.03790362
_cell_angle_gamma   45.03005024
_symmetry_Int_Tables_number   1
_chemical_formula_structural   Li2FeS2
_chemical_formula_sum   'Li4 Fe2 S4'
_cell_volume   189.51157376
_cell_formula_units_Z   2
loop_
 _symmetry_equiv_pos_site_id
 _symmetry_equiv_pos_as_xyz
  1  'x, y, z'
loop_
 _atom_site_type_symbol
 _atom_site_label
 _atom_site_symmetry_multiplicity
 _atom_site_fract_x
 _atom_site_fract_y
 _atom_site_fract_z
 _atom_site_occupancy
  Li  Li1  1  0.006340  0.497180  0.745507  1.0
  Li  Li2  1  0.999033  0.001097  0.743993  1.0
  Li  Li3  1  0.999858  0.502269  0.243943  1.0
  Li  Li4  1  0.004577  0.994923  0.244346  1.0
  Fe  Fe5  1  0.495855  0.001565  0.246272  1.0
  Fe  Fe6  1  0.501618  0.998051  0.745644  1.0
  S  S7  1  0.043532  0.228361  0.496305  1.0
  S  S8  1  0.501239  0.771147  0.993919  1.0
  S  S9  1  0.502125  0.225197  0.997290  1.0
  S  S10  1  0.953722  0.772300  0.494270  1.0
