# generated using pymatgen
data_Li4VF7
_symmetry_space_group_name_H-M   'P 1'
_cell_length_a   5.98537051
_cell_length_b   5.98537051
_cell_length_c   5.98537066
_cell_angle_alpha   119.99999913
_cell_angle_beta   119.99999913
_cell_angle_gamma   90.00000000
_symmetry_Int_Tables_number   1
_chemical_formula_structural   Li4VF7
_chemical_formula_sum   'Li4 V1 F7'
_cell_volume   151.62057631
_cell_formula_units_Z   1
loop_
 _symmetry_equiv_pos_site_id
 _symmetry_equiv_pos_as_xyz
  1  'x, y, z'
loop_
 _atom_site_type_symbol
 _atom_site_label
 _atom_site_symmetry_multiplicity
 _atom_site_fract_x
 _atom_site_fract_y
 _atom_site_fract_z
 _atom_site_occupancy
  Li  Li1  1  0.121822  0.373941  0.747882  1.0
  Li  Li2  1  0.626059  0.373941  0.747882  1.0
  Li  Li3  1  0.626059  0.373941  0.252118  1.0
  Li  Li4  1  0.626059  0.878178  0.252118  1.0
  V  V5  1  0.000000  0.000000  0.000000  1.0
  F  F6  1  0.236310  0.236310  0.472619  1.0
  F  F7  1  0.236310  0.236310  0.000000  1.0
  F  F8  1  0.236310  0.763690  0.000000  1.0
  F  F9  1  0.763690  0.763690  0.527381  1.0
  F  F10  1  0.750000  0.250000  0.500000  1.0
  F  F11  1  0.763690  0.236310  0.000000  1.0
  F  F12  1  0.763690  0.763690  0.000000  1.0
