# generated using pymatgen
data_Ba3SrI8
_symmetry_space_group_name_H-M   'P 1'
_cell_length_a   8.30617947
_cell_length_b   10.16775397
_cell_length_c   8.30617947
_cell_angle_alpha   65.89205759
_cell_angle_beta   90.00000000
_cell_angle_gamma   114.10794241
_symmetry_Int_Tables_number   1
_chemical_formula_structural   Ba3SrI8
_chemical_formula_sum   'Ba3 Sr1 I8'
_cell_volume   572.62585621
_cell_formula_units_Z   1
loop_
 _symmetry_equiv_pos_site_id
 _symmetry_equiv_pos_as_xyz
  1  'x, y, z'
loop_
 _atom_site_type_symbol
 _atom_site_label
 _atom_site_symmetry_multiplicity
 _atom_site_fract_x
 _atom_site_fract_y
 _atom_site_fract_z
 _atom_site_occupancy
  Ba  Ba1  1  0.250000  0.500000  0.250000  1.0
  Ba  Ba2  1  0.500000  0.000000  0.500000  1.0
  Ba  Ba3  1  0.750000  0.500000  0.750000  1.0
  Sr  Sr4  1  0.000000  0.000000  0.000000  1.0
  I  I5  1  0.877468  0.245491  0.122532  1.0
  I  I6  1  0.368023  0.245491  0.122532  1.0
  I  I7  1  0.631977  0.754510  0.368023  1.0
  I  I8  1  0.122532  0.754510  0.368023  1.0
  I  I9  1  0.877468  0.245491  0.631977  1.0
  I  I10  1  0.368023  0.245491  0.631977  1.0
  I  I11  1  0.122532  0.754510  0.877468  1.0
  I  I12  1  0.631977  0.754510  0.877468  1.0
