# generated using pymatgen
data_ReC5BrO5
_symmetry_space_group_name_H-M   'P 1'
_cell_length_a   6.18953171
_cell_length_b   11.78002768
_cell_length_c   12.17488204
_cell_angle_alpha   90.00000000
_cell_angle_beta   90.00000000
_cell_angle_gamma   90.00000000
_symmetry_Int_Tables_number   1
_chemical_formula_structural   ReC5BrO5
_chemical_formula_sum   'Re4 C20 Br4 O20'
_cell_volume   887.70540724
_cell_formula_units_Z   4
loop_
 _symmetry_equiv_pos_site_id
 _symmetry_equiv_pos_as_xyz
  1  'x, y, z'
loop_
 _atom_site_type_symbol
 _atom_site_label
 _atom_site_symmetry_multiplicity
 _atom_site_fract_x
 _atom_site_fract_y
 _atom_site_fract_z
 _atom_site_occupancy
  Re  Re1  1  0.956318  0.750000  0.124633  1.0
  Re  Re2  1  0.456318  0.250000  0.375367  1.0
  Re  Re3  1  0.043682  0.250000  0.875367  1.0
  Re  Re4  1  0.543682  0.750000  0.624633  1.0
  C  C5  1  0.185414  0.126843  0.965356  1.0
  C  C6  1  0.814586  0.626843  0.034644  1.0
  C  C7  1  0.915599  0.127614  0.779395  1.0
  C  C8  1  0.584401  0.127614  0.279395  1.0
  C  C9  1  0.795869  0.250000  0.971781  1.0
  C  C10  1  0.415599  0.627614  0.720605  1.0
  C  C11  1  0.685414  0.873157  0.534644  1.0
  C  C12  1  0.685414  0.626843  0.534644  1.0
  C  C13  1  0.915599  0.372386  0.779395  1.0
  C  C14  1  0.185414  0.373157  0.965356  1.0
  C  C15  1  0.814586  0.873157  0.034644  1.0
  C  C16  1  0.084401  0.627614  0.220605  1.0
  C  C17  1  0.084401  0.872386  0.220605  1.0
  C  C18  1  0.314586  0.373157  0.465356  1.0
  C  C19  1  0.704131  0.250000  0.471781  1.0
  C  C20  1  0.415599  0.872386  0.720605  1.0
  C  C21  1  0.314586  0.126843  0.465356  1.0
  C  C22  1  0.584401  0.372386  0.279395  1.0
  C  C23  1  0.204131  0.750000  0.028219  1.0
  C  C24  1  0.295869  0.750000  0.528219  1.0
  Br  Br25  1  0.109886  0.250000  0.247131  1.0
  Br  Br26  1  0.390114  0.250000  0.747131  1.0
  Br  Br27  1  0.609886  0.750000  0.252869  1.0
  Br  Br28  1  0.890114  0.750000  0.752869  1.0
  O  O29  1  0.738731  0.945602  0.983893  1.0
  O  O30  1  0.738731  0.554398  0.983893  1.0
  O  O31  1  0.238731  0.445602  0.516107  1.0
  O  O32  1  0.846747  0.444158  0.725624  1.0
  O  O33  1  0.154186  0.750000  0.464968  1.0
  O  O34  1  0.345814  0.750000  0.964968  1.0
  O  O35  1  0.845814  0.250000  0.535032  1.0
  O  O36  1  0.761269  0.945602  0.483893  1.0
  O  O37  1  0.654186  0.250000  0.035032  1.0
  O  O38  1  0.346747  0.944158  0.774376  1.0
  O  O39  1  0.846747  0.055842  0.725624  1.0
  O  O40  1  0.153253  0.555842  0.274376  1.0
  O  O41  1  0.653253  0.444158  0.225624  1.0
  O  O42  1  0.261269  0.054398  0.016107  1.0
  O  O43  1  0.653253  0.055842  0.225624  1.0
  O  O44  1  0.238731  0.054398  0.516107  1.0
  O  O45  1  0.153253  0.944158  0.274376  1.0
  O  O46  1  0.346747  0.555842  0.774376  1.0
  O  O47  1  0.261269  0.445602  0.016107  1.0
  O  O48  1  0.761269  0.554398  0.483893  1.0
