# generated using pymatgen
data_Na2NiO2
_symmetry_space_group_name_H-M   'P 1'
_cell_length_a   2.86964910
_cell_length_b   5.53413549
_cell_length_c   4.55105337
_cell_angle_alpha   65.54694860
_cell_angle_beta   90.03277406
_cell_angle_gamma   105.22302466
_symmetry_Int_Tables_number   1
_chemical_formula_structural   Na2NiO2
_chemical_formula_sum   'Na2 Ni1 O2'
_cell_volume   63.00097313
_cell_formula_units_Z   1
loop_
 _symmetry_equiv_pos_site_id
 _symmetry_equiv_pos_as_xyz
  1  'x, y, z'
loop_
 _atom_site_type_symbol
 _atom_site_label
 _atom_site_symmetry_multiplicity
 _atom_site_fract_x
 _atom_site_fract_y
 _atom_site_fract_z
 _atom_site_occupancy
  Na  Na1  1  0.324254  0.641562  0.174100  1.0
  Na  Na2  1  0.675722  0.357952  0.816758  1.0
  Ni  Ni3  1  0.004625  0.999279  0.496825  1.0
  O  O4  1  0.636857  0.260846  0.366046  1.0
  O  O5  1  0.371712  0.737156  0.626048  1.0
