# generated using pymatgen
data_ZnIn2O4
_symmetry_space_group_name_H-M   'P 1'
_cell_length_a   6.40296539
_cell_length_b   6.40296539
_cell_length_c   6.40296539
_cell_angle_alpha   60.00000000
_cell_angle_beta   60.00000000
_cell_angle_gamma   60.00000000
_symmetry_Int_Tables_number   1
_chemical_formula_structural   ZnIn2O4
_chemical_formula_sum   'Zn2 In4 O8'
_cell_volume   185.62158006
_cell_formula_units_Z   2
loop_
 _symmetry_equiv_pos_site_id
 _symmetry_equiv_pos_as_xyz
  1  'x, y, z'
loop_
 _atom_site_type_symbol
 _atom_site_label
 _atom_site_symmetry_multiplicity
 _atom_site_fract_x
 _atom_site_fract_y
 _atom_site_fract_z
 _atom_site_occupancy
  Zn  Zn1  1  0.125000  0.125000  0.125000  1.0
  Zn  Zn2  1  0.875000  0.875000  0.875000  1.0
  In  In3  1  0.500000  0.500000  0.000000  1.0
  In  In4  1  0.500000  0.000000  0.500000  1.0
  In  In5  1  0.000000  0.500000  0.500000  1.0
  In  In6  1  0.500000  0.500000  0.500000  1.0
  O  O7  1  0.256105  0.256105  0.256105  1.0
  O  O8  1  0.731684  0.256105  0.256105  1.0
  O  O9  1  0.256105  0.731684  0.256105  1.0
  O  O10  1  0.256105  0.256105  0.731684  1.0
  O  O11  1  0.743895  0.743895  0.268316  1.0
  O  O12  1  0.743895  0.268316  0.743895  1.0
  O  O13  1  0.743895  0.743895  0.743895  1.0
  O  O14  1  0.268316  0.743895  0.743895  1.0
