# generated using pymatgen
data_NaNi5O6
_symmetry_space_group_name_H-M   'P 1'
_cell_length_a   5.18622050
_cell_length_b   5.19035595
_cell_length_c   5.19006556
_cell_angle_alpha   119.82080770
_cell_angle_beta   80.26118360
_cell_angle_gamma   80.26295033
_symmetry_Int_Tables_number   1
_chemical_formula_structural   NaNi5O6
_chemical_formula_sum   'Na1 Ni5 O6'
_cell_volume   114.10224923
_cell_formula_units_Z   1
loop_
 _symmetry_equiv_pos_site_id
 _symmetry_equiv_pos_as_xyz
  1  'x, y, z'
loop_
 _atom_site_type_symbol
 _atom_site_label
 _atom_site_symmetry_multiplicity
 _atom_site_fract_x
 _atom_site_fract_y
 _atom_site_fract_z
 _atom_site_occupancy
  Na  Na1  1  0.500000  0.166667  0.833333  1.0
  Ni  Ni2  1  0.999946  0.002935  0.997235  1.0
  Ni  Ni3  1  0.000054  0.330398  0.669432  1.0
  Ni  Ni4  1  0.000000  0.666667  0.333333  1.0
  Ni  Ni5  1  0.499977  0.499135  0.500916  1.0
  Ni  Ni6  1  0.500023  0.834199  0.165751  1.0
  O  O7  1  0.241695  0.255156  0.278399  1.0
  O  O8  1  0.758305  0.078177  0.388267  1.0
  O  O9  1  0.765119  0.431279  0.097908  1.0
  O  O10  1  0.241715  0.611698  0.921851  1.0
  O  O11  1  0.234881  0.902054  0.568759  1.0
  O  O12  1  0.758285  0.721635  0.744816  1.0
