# generated using pymatgen
data_NiS2
_symmetry_space_group_name_H-M   'P 1'
_cell_length_a   5.44602920
_cell_length_b   4.79205639
_cell_length_c   5.35066314
_cell_angle_alpha   90.04787785
_cell_angle_beta   90.00799229
_cell_angle_gamma   42.50640441
_symmetry_Int_Tables_number   1
_chemical_formula_structural   NiS2
_chemical_formula_sum   'Ni2 S4'
_cell_volume   94.35079267
_cell_formula_units_Z   2
loop_
 _symmetry_equiv_pos_site_id
 _symmetry_equiv_pos_as_xyz
  1  'x, y, z'
loop_
 _atom_site_type_symbol
 _atom_site_label
 _atom_site_symmetry_multiplicity
 _atom_site_fract_x
 _atom_site_fract_y
 _atom_site_fract_z
 _atom_site_occupancy
  Ni  Ni1  1  0.754677  0.493177  0.165722  1.0
  Ni  Ni2  1  0.246245  0.505152  0.666158  1.0
  S  S3  1  0.261514  0.667604  0.051809  1.0
  S  S4  1  0.759198  0.670273  0.782526  1.0
  S  S5  1  0.240932  0.329864  0.282296  1.0
  S  S6  1  0.737433  0.333931  0.551489  1.0
