# generated using pymatgen
data_LiMn2O4
_symmetry_space_group_name_H-M   'P 1'
_cell_length_a   5.82004067
_cell_length_b   5.82004067
_cell_length_c   6.07090612
_cell_angle_alpha   62.00609684
_cell_angle_beta   59.47996473
_cell_angle_gamma   88.89189132
_symmetry_Int_Tables_number   1
_chemical_formula_structural   LiMn2O4
_chemical_formula_sum   'Li2 Mn4 O8'
_cell_volume   149.79631047
_cell_formula_units_Z   2
loop_
 _symmetry_equiv_pos_site_id
 _symmetry_equiv_pos_as_xyz
  1  'x, y, z'
loop_
 _atom_site_type_symbol
 _atom_site_label
 _atom_site_symmetry_multiplicity
 _atom_site_fract_x
 _atom_site_fract_y
 _atom_site_fract_z
 _atom_site_occupancy
  Li  Li1  1  0.500000  0.000000  0.500000  1.0
  Li  Li2  1  0.500000  0.500000  0.000000  1.0
  Mn  Mn3  1  0.000000  0.500000  0.500000  1.0
  Mn  Mn4  1  0.000000  0.000000  0.500000  1.0
  Mn  Mn5  1  0.000000  0.000000  0.000000  1.0
  Mn  Mn6  1  0.500000  0.000000  0.000000  1.0
  O  O7  1  0.264513  0.789494  0.984498  1.0
  O  O8  1  0.221362  0.198335  0.058482  1.0
  O  O9  1  0.256817  0.779844  0.441518  1.0
  O  O10  1  0.226008  0.250990  0.484498  1.0
  O  O11  1  0.773992  0.749010  0.515502  1.0
  O  O12  1  0.743183  0.220156  0.558482  1.0
  O  O13  1  0.778638  0.801665  0.941518  1.0
  O  O14  1  0.735487  0.210506  0.015502  1.0
