# generated using pymatgen
data_V3O5F
_symmetry_space_group_name_H-M   'P 1'
_cell_length_a   5.15228484
_cell_length_b   5.44562655
_cell_length_c   5.11921916
_cell_angle_alpha   87.23490074
_cell_angle_beta   58.41059935
_cell_angle_gamma   63.13814516
_symmetry_Int_Tables_number   1
_chemical_formula_structural   V3O5F
_chemical_formula_sum   'V3 O5 F1'
_cell_volume   105.73825104
_cell_formula_units_Z   1
loop_
 _symmetry_equiv_pos_site_id
 _symmetry_equiv_pos_as_xyz
  1  'x, y, z'
loop_
 _atom_site_type_symbol
 _atom_site_label
 _atom_site_symmetry_multiplicity
 _atom_site_fract_x
 _atom_site_fract_y
 _atom_site_fract_z
 _atom_site_occupancy
  V  V1  1  0.322730  0.055416  0.329241  1.0
  V  V2  1  0.729021  0.445005  0.138374  1.0
  V  V3  1  0.655035  0.978589  0.654848  1.0
  O  O4  1  0.518609  0.236782  0.067960  1.0
  O  O5  1  0.193169  0.221425  0.736628  1.0
  O  O6  1  0.854442  0.201054  0.411450  1.0
  O  O7  1  0.730948  0.763615  0.316808  1.0
  O  O8  1  0.544151  0.765729  0.940024  1.0
  F  F9  1  0.176405  0.744245  0.526292  1.0
