# generated using pymatgen
data_Li3Ni2O2F3
_symmetry_space_group_name_H-M   'P 1'
_cell_length_a   2.94037436
_cell_length_b   2.94037436
_cell_length_c   10.59642974
_cell_angle_alpha   97.97515235
_cell_angle_beta   97.97515235
_cell_angle_gamma   90.00000000
_symmetry_Int_Tables_number   1
_chemical_formula_structural   Li3Ni2O2F3
_chemical_formula_sum   'Li3 Ni2 O2 F3'
_cell_volume   89.83375499
_cell_formula_units_Z   1
loop_
 _symmetry_equiv_pos_site_id
 _symmetry_equiv_pos_as_xyz
  1  'x, y, z'
loop_
 _atom_site_type_symbol
 _atom_site_label
 _atom_site_symmetry_multiplicity
 _atom_site_fract_x
 _atom_site_fract_y
 _atom_site_fract_z
 _atom_site_occupancy
  Li  Li1  1  0.201234  0.201234  0.402468  1.0
  Li  Li2  1  0.800000  0.800000  0.600000  1.0
  Li  Li3  1  0.398766  0.398766  0.797532  1.0
  Ni  Ni4  1  0.000320  0.000320  0.000642  1.0
  Ni  Ni5  1  0.599680  0.599680  0.199358  1.0
  O  O6  1  0.498243  0.498243  0.996488  1.0
  O  O7  1  0.101757  0.101757  0.203512  1.0
  F  F8  1  0.704014  0.704014  0.408029  1.0
  F  F9  1  0.300000  0.300000  0.600000  1.0
  F  F10  1  0.895986  0.895986  0.791971  1.0
