# generated using pymatgen
data_Li2TiVO4
_symmetry_space_group_name_H-M   'P 1'
_cell_length_a   5.22389557
_cell_length_b   5.22389575
_cell_length_c   5.22389643
_cell_angle_alpha   133.32190783
_cell_angle_beta   133.32190426
_cell_angle_gamma   68.14906528
_symmetry_Int_Tables_number   1
_chemical_formula_structural   Li2TiVO4
_chemical_formula_sum   'Li2 Ti1 V1 O4'
_cell_volume   74.13140672
_cell_formula_units_Z   1
loop_
 _symmetry_equiv_pos_site_id
 _symmetry_equiv_pos_as_xyz
  1  'x, y, z'
loop_
 _atom_site_type_symbol
 _atom_site_label
 _atom_site_symmetry_multiplicity
 _atom_site_fract_x
 _atom_site_fract_y
 _atom_site_fract_z
 _atom_site_occupancy
  Li  Li1  1  0.250000  0.750000  0.500000  1.0
  Li  Li2  1  0.500000  0.500000  0.000000  1.0
  Ti  Ti3  1  0.750000  0.250000  0.500000  1.0
  V  V4  1  0.000000  0.000000  0.000000  1.0
  O  O5  1  0.521316  0.021316  0.500000  1.0
  O  O6  1  0.246816  0.246816  0.000000  1.0
  O  O7  1  0.978684  0.478684  0.500000  1.0
  O  O8  1  0.753184  0.753184  0.000000  1.0
