# generated using pymatgen
data_Li2HfO3
_symmetry_space_group_name_H-M   'P 1'
_cell_length_a   6.86046167
_cell_length_b   5.38575482
_cell_length_c   10.06763483
_cell_angle_alpha   84.95439597
_cell_angle_beta   137.22532139
_cell_angle_gamma   130.70630723
_symmetry_Int_Tables_number   1
_chemical_formula_structural   Li2HfO3
_chemical_formula_sum   'Li4 Hf2 O6'
_cell_volume   124.67351250
_cell_formula_units_Z   2
loop_
 _symmetry_equiv_pos_site_id
 _symmetry_equiv_pos_as_xyz
  1  'x, y, z'
loop_
 _atom_site_type_symbol
 _atom_site_label
 _atom_site_symmetry_multiplicity
 _atom_site_fract_x
 _atom_site_fract_y
 _atom_site_fract_z
 _atom_site_occupancy
  Li  Li1  1  0.325201  0.508093  0.661776  1.0
  Li  Li2  1  0.689742  0.508342  0.344128  1.0
  Li  Li3  1  0.001491  0.501731  0.000666  1.0
  Li  Li4  1  0.499358  0.000521  0.499354  1.0
  Hf  Hf5  1  0.834523  0.000819  0.167296  1.0
  Hf  Hf6  1  0.163957  0.000159  0.832029  1.0
  O  O7  1  0.575061  0.722442  0.421826  1.0
  O  O8  1  0.424624  0.279113  0.577840  1.0
  O  O9  1  0.867345  0.721763  0.068022  1.0
  O  O10  1  0.711079  0.212498  0.223408  1.0
  O  O11  1  0.130482  0.278265  0.930715  1.0
  O  O12  1  0.288298  0.789624  0.775687  1.0
