# generated using pymatgen
data_TaFeO4
_symmetry_space_group_name_H-M   'P 1'
_cell_length_a   4.68755243
_cell_length_b   5.07204807
_cell_length_c   5.70307142
_cell_angle_alpha   90.00000000
_cell_angle_beta   90.00000000
_cell_angle_gamma   89.91229025
_symmetry_Int_Tables_number   1
_chemical_formula_structural   TaFeO4
_chemical_formula_sum   'Ta2 Fe2 O8'
_cell_volume   135.59316580
_cell_formula_units_Z   2
loop_
 _symmetry_equiv_pos_site_id
 _symmetry_equiv_pos_as_xyz
  1  'x, y, z'
loop_
 _atom_site_type_symbol
 _atom_site_label
 _atom_site_symmetry_multiplicity
 _atom_site_fract_x
 _atom_site_fract_y
 _atom_site_fract_z
 _atom_site_occupancy
  Ta  Ta1  1  0.000000  0.750000  0.825223  1.0
  Ta  Ta2  1  0.000000  0.250000  0.174777  1.0
  Fe  Fe3  1  0.500000  0.750000  0.338915  1.0
  Fe  Fe4  1  0.500000  0.250000  0.661085  1.0
  O  O5  1  0.268811  0.914581  0.618251  1.0
  O  O6  1  0.223864  0.422049  0.885400  1.0
  O  O7  1  0.268811  0.414581  0.381749  1.0
  O  O8  1  0.223864  0.922049  0.114600  1.0
  O  O9  1  0.776136  0.077951  0.885400  1.0
  O  O10  1  0.731189  0.585419  0.618251  1.0
  O  O11  1  0.776136  0.577951  0.114600  1.0
  O  O12  1  0.731189  0.085419  0.381749  1.0
