# generated using pymatgen
data_Li2FeNiO4
_symmetry_space_group_name_H-M   'P 1'
_cell_length_a   5.13406328
_cell_length_b   5.13406372
_cell_length_c   5.13406362
_cell_angle_alpha   132.98720285
_cell_angle_beta   132.98720538
_cell_angle_gamma   68.67425014
_symmetry_Int_Tables_number   1
_chemical_formula_structural   Li2FeNiO4
_chemical_formula_sum   'Li2 Fe1 Ni1 O4'
_cell_volume   71.10591594
_cell_formula_units_Z   1
loop_
 _symmetry_equiv_pos_site_id
 _symmetry_equiv_pos_as_xyz
  1  'x, y, z'
loop_
 _atom_site_type_symbol
 _atom_site_label
 _atom_site_symmetry_multiplicity
 _atom_site_fract_x
 _atom_site_fract_y
 _atom_site_fract_z
 _atom_site_occupancy
  Li  Li1  1  0.250000  0.750000  0.500000  1.0
  Li  Li2  1  0.500000  0.500000  0.000000  1.0
  Fe  Fe3  1  0.750000  0.250000  0.500000  1.0
  Ni  Ni4  1  0.000000  0.000000  0.000000  1.0
  O  O5  1  0.518730  0.018730  0.500000  1.0
  O  O6  1  0.233936  0.233936  0.000000  1.0
  O  O7  1  0.981270  0.481270  0.500000  1.0
  O  O8  1  0.766064  0.766064  0.000000  1.0
