# generated using pymatgen
data_LiNi4O4F
_symmetry_space_group_name_H-M   'P 1'
_cell_length_a   2.96474785
_cell_length_b   2.96474785
_cell_length_c   10.78981406
_cell_angle_alpha   97.89663772
_cell_angle_beta   97.89663772
_cell_angle_gamma   90.00000000
_symmetry_Int_Tables_number   1
_chemical_formula_structural   LiNi4O4F
_chemical_formula_sum   'Li1 Ni4 O4 F1'
_cell_volume   93.03223044
_cell_formula_units_Z   1
loop_
 _symmetry_equiv_pos_site_id
 _symmetry_equiv_pos_as_xyz
  1  'x, y, z'
loop_
 _atom_site_type_symbol
 _atom_site_label
 _atom_site_symmetry_multiplicity
 _atom_site_fract_x
 _atom_site_fract_y
 _atom_site_fract_z
 _atom_site_occupancy
  Li  Li1  1  0.400000  0.400000  0.800000  1.0
  Ni  Ni2  1  0.001826  0.001826  0.003652  1.0
  Ni  Ni3  1  0.599628  0.599628  0.199257  1.0
  Ni  Ni4  1  0.200372  0.200372  0.400743  1.0
  Ni  Ni5  1  0.798174  0.798174  0.596348  1.0
  O  O6  1  0.499852  0.499852  0.999705  1.0
  O  O7  1  0.100218  0.100218  0.200435  1.0
  O  O8  1  0.699782  0.699782  0.399565  1.0
  O  O9  1  0.300148  0.300148  0.600295  1.0
  F  F10  1  0.900000  0.900000  0.800000  1.0
