# generated using pymatgen
data_CeScO3
_symmetry_space_group_name_H-M   'P 1'
_cell_length_a   5.83766135
_cell_length_b   8.06700310
_cell_length_c   5.63649154
_cell_angle_alpha   90.01357267
_cell_angle_beta   90.00000000
_cell_angle_gamma   90.00000000
_symmetry_Int_Tables_number   1
_chemical_formula_structural   CeScO3
_chemical_formula_sum   'Ce4 Sc4 O12'
_cell_volume   265.43608829
_cell_formula_units_Z   4
loop_
 _symmetry_equiv_pos_site_id
 _symmetry_equiv_pos_as_xyz
  1  'x, y, z'
loop_
 _atom_site_type_symbol
 _atom_site_label
 _atom_site_symmetry_multiplicity
 _atom_site_fract_x
 _atom_site_fract_y
 _atom_site_fract_z
 _atom_site_occupancy
  Ce  Ce1  1  0.058045  0.250102  0.985220  1.0
  Ce  Ce2  1  0.441955  0.750102  0.485220  1.0
  Ce  Ce3  1  0.558045  0.249898  0.514780  1.0
  Ce  Ce4  1  0.941955  0.749898  0.014780  1.0
  Sc  Sc5  1  0.000000  0.000000  0.500000  1.0
  Sc  Sc6  1  0.000000  0.500000  0.500000  1.0
  Sc  Sc7  1  0.500000  0.000000  0.000000  1.0
  Sc  Sc8  1  0.500000  0.500000  0.000000  1.0
  O  O9  1  0.042890  0.750015  0.614459  1.0
  O  O10  1  0.196716  0.940597  0.195300  1.0
  O  O11  1  0.196538  0.559154  0.195173  1.0
  O  O12  1  0.303462  0.059154  0.695173  1.0
  O  O13  1  0.303284  0.440597  0.695300  1.0
  O  O14  1  0.457110  0.250015  0.114459  1.0
  O  O15  1  0.542890  0.749985  0.885541  1.0
  O  O16  1  0.696716  0.559403  0.304700  1.0
  O  O17  1  0.696538  0.940846  0.304827  1.0
  O  O18  1  0.803462  0.440846  0.804827  1.0
  O  O19  1  0.803284  0.059403  0.804700  1.0
  O  O20  1  0.957110  0.249985  0.385541  1.0
