# generated using pymatgen
data_MgFe2O5
_symmetry_space_group_name_H-M   'P 1'
_cell_length_a   5.25542846
_cell_length_b   5.25542846
_cell_length_c   9.75593650
_cell_angle_alpha   90.00000000
_cell_angle_beta   90.00000000
_cell_angle_gamma   43.77883390
_symmetry_Int_Tables_number   1
_chemical_formula_structural   MgFe2O5
_chemical_formula_sum   'Mg2 Fe4 O10'
_cell_volume   186.42914118
_cell_formula_units_Z   2
loop_
 _symmetry_equiv_pos_site_id
 _symmetry_equiv_pos_as_xyz
  1  'x, y, z'
loop_
 _atom_site_type_symbol
 _atom_site_label
 _atom_site_symmetry_multiplicity
 _atom_site_fract_x
 _atom_site_fract_y
 _atom_site_fract_z
 _atom_site_occupancy
  Mg  Mg1  1  0.204703  0.204703  0.250000  1.0
  Mg  Mg2  1  0.795297  0.795297  0.750000  1.0
  Fe  Fe3  1  0.138639  0.138639  0.561157  1.0
  Fe  Fe4  1  0.138639  0.138639  0.938843  1.0
  Fe  Fe5  1  0.861361  0.861361  0.061157  1.0
  Fe  Fe6  1  0.861361  0.861361  0.438843  1.0
  O  O7  1  0.046741  0.046741  0.114663  1.0
  O  O8  1  0.046741  0.046741  0.385337  1.0
  O  O9  1  0.309522  0.309522  0.056590  1.0
  O  O10  1  0.309522  0.309522  0.443410  1.0
  O  O11  1  0.784790  0.784790  0.250000  1.0
  O  O12  1  0.215210  0.215210  0.750000  1.0
  O  O13  1  0.690478  0.690478  0.556590  1.0
  O  O14  1  0.953259  0.953259  0.614663  1.0
  O  O15  1  0.690478  0.690478  0.943410  1.0
  O  O16  1  0.953259  0.953259  0.885337  1.0
