# generated using pymatgen
data_Li2EuGe
_symmetry_space_group_name_H-M   'P 1'
_cell_length_a   4.76797198
_cell_length_b   4.76795673
_cell_length_c   4.76795301
_cell_angle_alpha   59.99989453
_cell_angle_beta   60.00058316
_cell_angle_gamma   59.99976918
_symmetry_Int_Tables_number   1
_chemical_formula_structural   Li2EuGe
_chemical_formula_sum   'Li2 Eu1 Ge1'
_cell_volume   76.64499125
_cell_formula_units_Z   1
loop_
 _symmetry_equiv_pos_site_id
 _symmetry_equiv_pos_as_xyz
  1  'x, y, z'
loop_
 _atom_site_type_symbol
 _atom_site_label
 _atom_site_symmetry_multiplicity
 _atom_site_fract_x
 _atom_site_fract_y
 _atom_site_fract_z
 _atom_site_occupancy
  Li  Li1  1  0.000000  0.000001  0.999999  1.0
  Li  Li2  1  0.499999  0.500000  0.499999  1.0
  Eu  Eu3  1  0.250001  0.249997  0.250002  1.0
  Ge  Ge4  1  0.749999  0.750001  0.749999  1.0
