# generated using pymatgen
data_LiMnFeO4
_symmetry_space_group_name_H-M   'P 1'
_cell_length_a   5.87750156
_cell_length_b   5.95779251
_cell_length_c   5.95779203
_cell_angle_alpha   60.07790633
_cell_angle_beta   60.44480825
_cell_angle_gamma   60.44481084
_symmetry_Int_Tables_number   1
_chemical_formula_structural   LiMnFeO4
_chemical_formula_sum   'Li2 Mn2 Fe2 O8'
_cell_volume   148.59161546
_cell_formula_units_Z   2
loop_
 _symmetry_equiv_pos_site_id
 _symmetry_equiv_pos_as_xyz
  1  'x, y, z'
loop_
 _atom_site_type_symbol
 _atom_site_label
 _atom_site_symmetry_multiplicity
 _atom_site_fract_x
 _atom_site_fract_y
 _atom_site_fract_z
 _atom_site_occupancy
  Li  Li1  1  0.114018  0.135982  0.135982  1.0
  Li  Li2  1  0.885982  0.864018  0.864018  1.0
  Mn  Mn3  1  0.000000  0.500000  0.500000  1.0
  Mn  Mn4  1  0.500000  0.500000  0.500000  1.0
  Fe  Fe5  1  0.500000  0.000000  0.500000  1.0
  Fe  Fe6  1  0.500000  0.500000  0.000000  1.0
  O  O7  1  0.246970  0.271020  0.271020  1.0
  O  O8  1  0.256764  0.273711  0.712761  1.0
  O  O9  1  0.256764  0.712761  0.273711  1.0
  O  O10  1  0.710989  0.271020  0.271020  1.0
  O  O11  1  0.289011  0.728980  0.728980  1.0
  O  O12  1  0.743236  0.726289  0.287239  1.0
  O  O13  1  0.743236  0.287239  0.726289  1.0
  O  O14  1  0.753030  0.728980  0.728980  1.0
