# generated using pymatgen
data_TlPF6
_symmetry_space_group_name_H-M   'P 1'
_cell_length_a   5.61853753
_cell_length_b   5.79029961
_cell_length_c   5.61853801
_cell_angle_alpha   60.97650971
_cell_angle_beta   59.99999725
_cell_angle_gamma   60.97651425
_symmetry_Int_Tables_number   1
_chemical_formula_structural   TlPF6
_chemical_formula_sum   'Tl1 P1 F6'
_cell_volume   131.12561711
_cell_formula_units_Z   1
loop_
 _symmetry_equiv_pos_site_id
 _symmetry_equiv_pos_as_xyz
  1  'x, y, z'
loop_
 _atom_site_type_symbol
 _atom_site_label
 _atom_site_symmetry_multiplicity
 _atom_site_fract_x
 _atom_site_fract_y
 _atom_site_fract_z
 _atom_site_occupancy
  Tl  Tl1  1  0.500000  0.500000  0.500000  1.0
  P  P2  1  0.000000  0.000000  0.000000  1.0
  F  F3  1  0.071765  0.197708  0.071765  1.0
  F  F4  1  0.071765  0.197708  0.658762  1.0
  F  F5  1  0.658762  0.197708  0.071765  1.0
  F  F6  1  0.341238  0.802292  0.928235  1.0
  F  F7  1  0.928235  0.802292  0.341238  1.0
  F  F8  1  0.928235  0.802292  0.928235  1.0
