# generated using pymatgen
data_V3O5
_symmetry_space_group_name_H-M   'P 1'
_cell_length_a   5.18714795
_cell_length_b   7.09940858
_cell_length_c   10.02708649
_cell_angle_alpha   109.24189219
_cell_angle_beta   90.00000000
_cell_angle_gamma   90.00000000
_symmetry_Int_Tables_number   1
_chemical_formula_structural   V3O5
_chemical_formula_sum   'V12 O20'
_cell_volume   348.62615883
_cell_formula_units_Z   4
loop_
 _symmetry_equiv_pos_site_id
 _symmetry_equiv_pos_as_xyz
  1  'x, y, z'
loop_
 _atom_site_type_symbol
 _atom_site_label
 _atom_site_symmetry_multiplicity
 _atom_site_fract_x
 _atom_site_fract_y
 _atom_site_fract_z
 _atom_site_occupancy
  V  V1  1  0.501382  0.908855  0.632143  1.0
  V  V2  1  0.498618  0.408855  0.632143  1.0
  V  V3  1  0.498618  0.091145  0.367857  1.0
  V  V4  1  0.996449  0.591735  0.870701  1.0
  V  V5  1  0.996449  0.908265  0.129299  1.0
  V  V6  1  0.003551  0.408265  0.129299  1.0
  V  V7  1  0.003551  0.091735  0.870701  1.0
  V  V8  1  0.000000  0.000000  0.500000  1.0
  V  V9  1  0.501382  0.591145  0.367857  1.0
  V  V10  1  0.500000  0.000000  0.000000  1.0
  V  V11  1  0.000000  0.500000  0.500000  1.0
  V  V12  1  0.500000  0.500000  0.000000  1.0
  O  O13  1  0.647894  0.533672  0.200071  1.0
  O  O14  1  0.159476  0.865278  0.923018  1.0
  O  O15  1  0.840524  0.134722  0.076982  1.0
  O  O16  1  0.840421  0.521755  0.685005  1.0
  O  O17  1  0.311977  0.250000  0.000000  1.0
  O  O18  1  0.649602  0.363092  0.419754  1.0
  O  O19  1  0.350398  0.863092  0.419754  1.0
  O  O20  1  0.207404  0.250000  0.500000  1.0
  O  O21  1  0.352106  0.033672  0.200071  1.0
  O  O22  1  0.352106  0.466328  0.799929  1.0
  O  O23  1  0.840421  0.978245  0.314995  1.0
  O  O24  1  0.647894  0.966328  0.799929  1.0
  O  O25  1  0.688023  0.750000  0.000000  1.0
  O  O26  1  0.159579  0.021755  0.685005  1.0
  O  O27  1  0.159579  0.478245  0.314995  1.0
  O  O28  1  0.350398  0.636908  0.580246  1.0
  O  O29  1  0.840524  0.365278  0.923018  1.0
  O  O30  1  0.792596  0.750000  0.500000  1.0
  O  O31  1  0.649602  0.136908  0.580246  1.0
  O  O32  1  0.159476  0.634722  0.076982  1.0
