# generated using pymatgen
data_Ti2Cu3
_symmetry_space_group_name_H-M   'P 1'
_cell_length_a   3.14656559
_cell_length_b   3.14654126
_cell_length_c   13.98270810
_cell_angle_alpha   89.99978079
_cell_angle_beta   90.00019225
_cell_angle_gamma   90.00005153
_symmetry_Int_Tables_number   1
_chemical_formula_structural   Ti2Cu3
_chemical_formula_sum   'Ti4 Cu6'
_cell_volume   138.43997477
_cell_formula_units_Z   2
loop_
 _symmetry_equiv_pos_site_id
 _symmetry_equiv_pos_as_xyz
  1  'x, y, z'
loop_
 _atom_site_type_symbol
 _atom_site_label
 _atom_site_symmetry_multiplicity
 _atom_site_fract_x
 _atom_site_fract_y
 _atom_site_fract_z
 _atom_site_occupancy
  Ti  Ti1  1  0.249999  0.250001  0.439528  1.0
  Ti  Ti2  1  0.250001  0.250000  0.854524  1.0
  Ti  Ti3  1  0.749999  0.749997  0.560434  1.0
  Ti  Ti4  1  0.750003  0.749997  0.145469  1.0
  Cu  Cu5  1  0.249982  0.250002  0.044841  1.0
  Cu  Cu6  1  0.250000  0.250006  0.244159  1.0
  Cu  Cu7  1  0.250003  0.249994  0.664121  1.0
  Cu  Cu8  1  0.749987  0.749995  0.755888  1.0
  Cu  Cu9  1  0.750021  0.750004  0.955117  1.0
  Cu  Cu10  1  0.750004  0.750005  0.335918  1.0
