# generated using pymatgen
data_CoBiO4
_symmetry_space_group_name_H-M   'P 1'
_cell_length_a   6.15881723
_cell_length_b   6.15881737
_cell_length_c   6.80990269
_cell_angle_alpha   56.64462902
_cell_angle_beta   56.64462964
_cell_angle_gamma   88.15187562
_symmetry_Int_Tables_number   1
_chemical_formula_structural   CoBiO4
_chemical_formula_sum   'Co2 Bi2 O8'
_cell_volume   166.16819386
_cell_formula_units_Z   2
loop_
 _symmetry_equiv_pos_site_id
 _symmetry_equiv_pos_as_xyz
  1  'x, y, z'
loop_
 _atom_site_type_symbol
 _atom_site_label
 _atom_site_symmetry_multiplicity
 _atom_site_fract_x
 _atom_site_fract_y
 _atom_site_fract_z
 _atom_site_occupancy
  Co  Co1  1  0.000000  0.500000  0.500000  1.0
  Co  Co2  1  0.500000  0.000000  0.000000  1.0
  Bi  Bi3  1  0.000000  0.000000  0.500000  1.0
  Bi  Bi4  1  0.000000  0.000000  0.000000  1.0
  O  O5  1  0.724034  0.775448  0.999037  1.0
  O  O6  1  0.249869  0.753545  0.436949  1.0
  O  O7  1  0.753545  0.249869  0.936949  1.0
  O  O8  1  0.775448  0.724034  0.499037  1.0
  O  O9  1  0.224552  0.275966  0.500963  1.0
  O  O10  1  0.246455  0.750131  0.063051  1.0
  O  O11  1  0.750131  0.246455  0.563051  1.0
  O  O12  1  0.275966  0.224552  0.000963  1.0
