# generated using pymatgen
data_LiVF3
_symmetry_space_group_name_H-M   'P 1'
_cell_length_a   5.85796493
_cell_length_b   5.85798660
_cell_length_c   5.89149084
_cell_angle_alpha   90.00000000
_cell_angle_beta   90.00000000
_cell_angle_gamma   59.99926547
_symmetry_Int_Tables_number   1
_chemical_formula_structural   LiVF3
_chemical_formula_sum   'Li2 V2 F6'
_cell_volume   175.08452618
_cell_formula_units_Z   2
loop_
 _symmetry_equiv_pos_site_id
 _symmetry_equiv_pos_as_xyz
  1  'x, y, z'
loop_
 _atom_site_type_symbol
 _atom_site_label
 _atom_site_symmetry_multiplicity
 _atom_site_fract_x
 _atom_site_fract_y
 _atom_site_fract_z
 _atom_site_occupancy
  Li  Li1  1  0.333314  0.333343  0.250000  1.0
  Li  Li2  1  0.666654  0.666674  0.750000  1.0
  V  V3  1  0.999991  0.000003  0.000024  1.0
  V  V4  1  0.999991  0.000003  0.499976  1.0
  F  F5  1  0.152184  0.152233  0.250000  1.0
  F  F6  1  0.152194  0.695587  0.250000  1.0
  F  F7  1  0.304427  0.847786  0.750000  1.0
  F  F8  1  0.695556  0.152221  0.250000  1.0
  F  F9  1  0.847778  0.304451  0.750000  1.0
  F  F10  1  0.847756  0.847799  0.750000  1.0
