# generated using pymatgen
data_CdIn2O4
_symmetry_space_group_name_H-M   'P 1'
_cell_length_a   6.58383055
_cell_length_b   6.58383072
_cell_length_c   6.48413744
_cell_angle_alpha   60.49964644
_cell_angle_beta   60.49964565
_cell_angle_gamma   60.85400463
_symmetry_Int_Tables_number   1
_chemical_formula_structural   CdIn2O4
_chemical_formula_sum   'Cd2 In4 O8'
_cell_volume   201.51177919
_cell_formula_units_Z   2
loop_
 _symmetry_equiv_pos_site_id
 _symmetry_equiv_pos_as_xyz
  1  'x, y, z'
loop_
 _atom_site_type_symbol
 _atom_site_label
 _atom_site_symmetry_multiplicity
 _atom_site_fract_x
 _atom_site_fract_y
 _atom_site_fract_z
 _atom_site_occupancy
  Cd  Cd1  1  0.625000  0.625000  0.125000  1.0
  Cd  Cd2  1  0.625000  0.625000  0.625000  1.0
  In  In3  1  0.008572  0.008572  0.991428  1.0
  In  In4  1  0.241428  0.241428  0.258572  1.0
  In  In5  1  0.125000  0.625000  0.625000  1.0
  In  In6  1  0.625000  0.125000  0.625000  1.0
  O  O7  1  0.373000  0.373000  0.396148  1.0
  O  O8  1  0.373000  0.373000  0.857852  1.0
  O  O9  1  0.364538  0.854936  0.390263  1.0
  O  O10  1  0.854936  0.364538  0.390263  1.0
  O  O11  1  0.395064  0.885462  0.859737  1.0
  O  O12  1  0.885462  0.395064  0.859737  1.0
  O  O13  1  0.877000  0.877000  0.392148  1.0
  O  O14  1  0.877000  0.877000  0.853852  1.0
