# generated using pymatgen
data_VO2
_symmetry_space_group_name_H-M   'P 1'
_cell_length_a   5.65566363
_cell_length_b   8.43431968
_cell_length_c   3.71982357
_cell_angle_alpha   90.00000000
_cell_angle_beta   90.00000000
_cell_angle_gamma   90.00000000
_symmetry_Int_Tables_number   1
_chemical_formula_structural   VO2
_chemical_formula_sum   'V4 O8'
_cell_volume   177.44181521
_cell_formula_units_Z   4
loop_
 _symmetry_equiv_pos_site_id
 _symmetry_equiv_pos_as_xyz
  1  'x, y, z'
loop_
 _atom_site_type_symbol
 _atom_site_label
 _atom_site_symmetry_multiplicity
 _atom_site_fract_x
 _atom_site_fract_y
 _atom_site_fract_z
 _atom_site_occupancy
  V  V1  1  0.165785  0.631228  0.500084  1.0
  V  V2  1  0.334215  0.368772  0.000084  1.0
  V  V3  1  0.665785  0.868772  0.499916  1.0
  V  V4  1  0.834215  0.131228  0.999916  1.0
  O  O5  1  0.141294  0.558611  0.000084  1.0
  O  O6  1  0.337571  0.797736  0.500011  1.0
  O  O7  1  0.162429  0.202264  0.000011  1.0
  O  O8  1  0.358706  0.441389  0.500085  1.0
  O  O9  1  0.641294  0.941389  0.999915  1.0
  O  O10  1  0.837571  0.702264  0.499989  1.0
  O  O11  1  0.662429  0.297736  0.999989  1.0
  O  O12  1  0.858706  0.058611  0.499916  1.0
