# generated using pymatgen
data_Mg3Fe2O5
_symmetry_space_group_name_H-M   'P 1'
_cell_length_a   5.30297685
_cell_length_b   4.22754865
_cell_length_c   5.31738172
_cell_angle_alpha   66.31657451
_cell_angle_beta   80.76383558
_cell_angle_gamma   66.93087370
_symmetry_Int_Tables_number   1
_chemical_formula_structural   Mg3Fe2O5
_chemical_formula_sum   'Mg3 Fe2 O5'
_cell_volume   100.43778499
_cell_formula_units_Z   1
loop_
 _symmetry_equiv_pos_site_id
 _symmetry_equiv_pos_as_xyz
  1  'x, y, z'
loop_
 _atom_site_type_symbol
 _atom_site_label
 _atom_site_symmetry_multiplicity
 _atom_site_fract_x
 _atom_site_fract_y
 _atom_site_fract_z
 _atom_site_occupancy
  Mg  Mg1  1  0.993644  0.006002  0.992656  1.0
  Mg  Mg2  1  0.799549  0.799067  0.600137  1.0
  Mg  Mg3  1  0.605292  0.591704  0.207698  1.0
  Fe  Fe4  1  0.201154  0.201010  0.393853  1.0
  Fe  Fe5  1  0.397878  0.397058  0.806092  1.0
  O  O6  1  0.197788  0.705717  0.387872  1.0
  O  O7  1  0.983886  0.512461  0.990390  1.0
  O  O8  1  0.401198  0.892342  0.812322  1.0
  O  O9  1  0.799644  0.299101  0.600035  1.0
  O  O10  1  0.614907  0.085224  0.209933  1.0
