# generated using pymatgen
data_ScFeO3
_symmetry_space_group_name_H-M   'P 1'
_cell_length_a   3.36922391
_cell_length_b   3.36955216
_cell_length_c   11.94425532
_cell_angle_alpha   89.99992184
_cell_angle_beta   89.99975762
_cell_angle_gamma   120.00264105
_symmetry_Int_Tables_number   1
_chemical_formula_structural   ScFeO3
_chemical_formula_sum   'Sc2 Fe2 O6'
_cell_volume   117.43031046
_cell_formula_units_Z   2
loop_
 _symmetry_equiv_pos_site_id
 _symmetry_equiv_pos_as_xyz
  1  'x, y, z'
loop_
 _atom_site_type_symbol
 _atom_site_label
 _atom_site_symmetry_multiplicity
 _atom_site_fract_x
 _atom_site_fract_y
 _atom_site_fract_z
 _atom_site_occupancy
  Sc  Sc1  1  0.000005  0.999978  0.000319  1.0
  Sc  Sc2  1  0.000004  0.999994  0.499682  1.0
  Fe  Fe3  1  0.333288  0.666624  0.750000  1.0
  Fe  Fe4  1  0.666715  0.333329  0.250001  1.0
  O  O5  1  0.000002  0.999975  0.249998  1.0
  O  O6  1  0.000007  0.999982  0.749999  1.0
  O  O7  1  0.333312  0.666642  0.581363  1.0
  O  O8  1  0.333310  0.666629  0.918638  1.0
  O  O9  1  0.666681  0.333329  0.418192  1.0
  O  O10  1  0.666676  0.333318  0.081807  1.0
