# generated using pymatgen
data_Li4NiOF4
_symmetry_space_group_name_H-M   'P 1'
_cell_length_a   2.90629193
_cell_length_b   2.90629193
_cell_length_c   10.61099989
_cell_angle_alpha   97.87122799
_cell_angle_beta   82.12877201
_cell_angle_gamma   90.00000000
_symmetry_Int_Tables_number   1
_chemical_formula_structural   Li4NiOF4
_chemical_formula_sum   'Li4 Ni1 O1 F4'
_cell_volume   87.92919829
_cell_formula_units_Z   1
loop_
 _symmetry_equiv_pos_site_id
 _symmetry_equiv_pos_as_xyz
  1  'x, y, z'
loop_
 _atom_site_type_symbol
 _atom_site_label
 _atom_site_symmetry_multiplicity
 _atom_site_fract_x
 _atom_site_fract_y
 _atom_site_fract_z
 _atom_site_occupancy
  Li  Li1  1  0.399079  0.600921  0.201842  1.0
  Li  Li2  1  0.798377  0.201623  0.403246  1.0
  Li  Li3  1  0.201623  0.798377  0.596754  1.0
  Li  Li4  1  0.600921  0.399079  0.798158  1.0
  Ni  Ni5  1  0.000000  0.000000  0.000000  1.0
  O  O6  1  0.500000  0.500000  0.000000  1.0
  F  F7  1  0.896069  0.103931  0.207863  1.0
  F  F8  1  0.299060  0.700940  0.401881  1.0
  F  F9  1  0.700940  0.299060  0.598119  1.0
  F  F10  1  0.103931  0.896069  0.792137  1.0
