# generated using pymatgen
data_Ni3O4
_symmetry_space_group_name_H-M   'P 1'
_cell_length_a   5.05398636
_cell_length_b   5.81625802
_cell_length_c   5.74152133
_cell_angle_alpha   60.42416493
_cell_angle_beta   90.00000000
_cell_angle_gamma   105.74279566
_symmetry_Int_Tables_number   1
_chemical_formula_structural   Ni3O4
_chemical_formula_sum   'Ni6 O8'
_cell_volume   139.45745361
_cell_formula_units_Z   2
loop_
 _symmetry_equiv_pos_site_id
 _symmetry_equiv_pos_as_xyz
  1  'x, y, z'
loop_
 _atom_site_type_symbol
 _atom_site_label
 _atom_site_symmetry_multiplicity
 _atom_site_fract_x
 _atom_site_fract_y
 _atom_site_fract_z
 _atom_site_occupancy
  Ni  Ni1  1  0.000039  0.000003  0.999998  1.0
  Ni  Ni2  1  0.999959  0.999993  0.500003  1.0
  Ni  Ni3  1  0.500002  0.500003  0.749999  1.0
  Ni  Ni4  1  0.499999  0.499998  0.250001  1.0
  Ni  Ni5  1  0.000001  0.500001  0.500001  1.0
  Ni  Ni6  1  0.000001  0.500001  0.999998  1.0
  O  O7  1  0.792393  0.292424  0.353788  1.0
  O  O8  1  0.792402  0.292412  0.853794  1.0
  O  O9  1  0.207612  0.707578  0.146210  1.0
  O  O10  1  0.207597  0.707590  0.646205  1.0
  O  O11  1  0.770571  0.729373  0.885322  1.0
  O  O12  1  0.770571  0.729373  0.385305  1.0
  O  O13  1  0.229428  0.270626  0.614682  1.0
  O  O14  1  0.229428  0.270626  0.114692  1.0
