# generated using pymatgen
data_Ca(HoSe2)2
_symmetry_space_group_name_H-M   'P 1'
_cell_length_a   7.24501487
_cell_length_b   14.61788648
_cell_length_c   14.02011013
_cell_angle_alpha   16.44204796
_cell_angle_beta   28.46045239
_cell_angle_gamma   32.52095303
_symmetry_Int_Tables_number   1
_chemical_formula_structural   Ca(HoSe2)2
_chemical_formula_sum   'Ca1 Ho2 Se4'
_cell_volume   200.28191524
_cell_formula_units_Z   1
loop_
 _symmetry_equiv_pos_site_id
 _symmetry_equiv_pos_as_xyz
  1  'x, y, z'
loop_
 _atom_site_type_symbol
 _atom_site_label
 _atom_site_symmetry_multiplicity
 _atom_site_fract_x
 _atom_site_fract_y
 _atom_site_fract_z
 _atom_site_occupancy
  Ca  Ca1  1  0.500000  0.500000  0.500000  1.0
  Ho  Ho2  1  0.000000  0.000000  0.000000  1.0
  Ho  Ho3  1  0.000000  0.500000  0.000000  1.0
  Se  Se4  1  0.252309  0.500000  0.258596  1.0
  Se  Se5  1  0.756629  0.000000  0.741618  1.0
  Se  Se6  1  0.243371  0.000000  0.258382  1.0
  Se  Se7  1  0.747691  0.500000  0.741404  1.0
