# generated using pymatgen
data_Ca2SiO4
_symmetry_space_group_name_H-M   'P 1'
_cell_length_a   5.39297640
_cell_length_b   9.90511525
_cell_length_c   6.97692540
_cell_angle_alpha   87.90363548
_cell_angle_beta   89.99662591
_cell_angle_gamma   89.99932737
_symmetry_Int_Tables_number   1
_chemical_formula_structural   Ca2SiO4
_chemical_formula_sum   'Ca8 Si4 O16'
_cell_volume   372.44433095
_cell_formula_units_Z   4
loop_
 _symmetry_equiv_pos_site_id
 _symmetry_equiv_pos_as_xyz
  1  'x, y, z'
loop_
 _atom_site_type_symbol
 _atom_site_label
 _atom_site_symmetry_multiplicity
 _atom_site_fract_x
 _atom_site_fract_y
 _atom_site_fract_z
 _atom_site_occupancy
  Ca  Ca1  1  0.002396  0.342349  0.708306  1.0
  Ca  Ca2  1  0.997638  0.657593  0.291654  1.0
  Ca  Ca3  1  0.999998  0.999994  0.000015  1.0
  Ca  Ca4  1  0.000009  0.999987  0.500004  1.0
  Ca  Ca5  1  0.502310  0.157575  0.291547  1.0
  Ca  Ca6  1  0.497717  0.842484  0.708477  1.0
  Ca  Ca7  1  0.500009  0.499991  0.999996  1.0
  Ca  Ca8  1  0.500006  0.500011  0.500005  1.0
  Si  Si9  1  0.000433  0.328333  0.220498  1.0
  Si  Si10  1  0.999561  0.671647  0.779471  1.0
  Si  Si11  1  0.499570  0.828342  0.220595  1.0
  Si  Si12  1  0.500424  0.171678  0.779427  1.0
  O  O13  1  0.952017  0.163375  0.260995  1.0
  O  O14  1  0.048035  0.836607  0.739047  1.0
  O  O15  1  0.118507  0.628169  0.987608  1.0
  O  O16  1  0.149484  0.592348  0.609959  1.0
  O  O17  1  0.297615  0.367648  0.251751  1.0
  O  O18  1  0.350402  0.092535  0.609828  1.0
  O  O19  1  0.202387  0.867696  0.251794  1.0
  O  O20  1  0.381319  0.128182  0.987486  1.0
  O  O21  1  0.452197  0.336665  0.739074  1.0
  O  O22  1  0.547845  0.663356  0.260934  1.0
  O  O23  1  0.618625  0.871880  0.012546  1.0
  O  O24  1  0.797568  0.132266  0.748222  1.0
  O  O25  1  0.649542  0.907516  0.390194  1.0
  O  O26  1  0.702353  0.632386  0.748244  1.0
  O  O27  1  0.850427  0.407625  0.389979  1.0
  O  O28  1  0.881493  0.371762  0.012346  1.0
