# generated using pymatgen
data_MoO3
_symmetry_space_group_name_H-M   'P 1'
_cell_length_a   3.76422422
_cell_length_b   3.93003219
_cell_length_c   7.49184212
_cell_angle_alpha   103.42525099
_cell_angle_beta   90.00000000
_cell_angle_gamma   90.00000000
_symmetry_Int_Tables_number   1
_chemical_formula_structural   MoO3
_chemical_formula_sum   'Mo2 O6'
_cell_volume   107.80213440
_cell_formula_units_Z   2
loop_
 _symmetry_equiv_pos_site_id
 _symmetry_equiv_pos_as_xyz
  1  'x, y, z'
loop_
 _atom_site_type_symbol
 _atom_site_label
 _atom_site_symmetry_multiplicity
 _atom_site_fract_x
 _atom_site_fract_y
 _atom_site_fract_z
 _atom_site_occupancy
  Mo  Mo1  1  0.250000  0.342765  0.295691  1.0
  Mo  Mo2  1  0.750000  0.657244  0.704318  1.0
  O  O3  1  0.250000  0.901254  0.323208  1.0
  O  O4  1  0.750000  0.098743  0.676789  1.0
  O  O5  1  0.750000  0.435734  0.369396  1.0
  O  O6  1  0.250000  0.564254  0.630597  1.0
  O  O7  1  0.250000  0.277140  0.062996  1.0
  O  O8  1  0.750000  0.722865  0.937005  1.0
