# generated using pymatgen
data_AlCrO4
_symmetry_space_group_name_H-M   'P 1'
_cell_length_a   4.46680885
_cell_length_b   5.32722695
_cell_length_c   4.46669148
_cell_angle_alpha   88.86081184
_cell_angle_beta   91.36062983
_cell_angle_gamma   146.97417591
_symmetry_Int_Tables_number   1
_chemical_formula_structural   AlCrO4
_chemical_formula_sum   'Al1 Cr1 O4'
_cell_volume   57.91246978
_cell_formula_units_Z   1
loop_
 _symmetry_equiv_pos_site_id
 _symmetry_equiv_pos_as_xyz
  1  'x, y, z'
loop_
 _atom_site_type_symbol
 _atom_site_label
 _atom_site_symmetry_multiplicity
 _atom_site_fract_x
 _atom_site_fract_y
 _atom_site_fract_z
 _atom_site_occupancy
  Al  Al1  1  0.500447  0.998146  0.500512  1.0
  Cr  Cr2  1  0.503445  0.501266  0.000414  1.0
  O  O3  1  0.200527  0.999977  0.803672  1.0
  O  O4  1  0.197898  0.498285  0.697935  1.0
  O  O5  1  0.805427  0.999871  0.198878  1.0
  O  O6  1  0.803992  0.498356  0.303773  1.0
