# generated using pymatgen
data_TiCu3O4
_symmetry_space_group_name_H-M   'P 1'
_cell_length_a   6.08988564
_cell_length_b   6.08988569
_cell_length_c   17.08462683
_cell_angle_alpha   24.54463405
_cell_angle_beta   24.54463306
_cell_angle_gamma   28.34473104
_symmetry_Int_Tables_number   1
_chemical_formula_structural   TiCu3O4
_chemical_formula_sum   'Ti1 Cu3 O4'
_cell_volume   104.11867685
_cell_formula_units_Z   1
loop_
 _symmetry_equiv_pos_site_id
 _symmetry_equiv_pos_as_xyz
  1  'x, y, z'
loop_
 _atom_site_type_symbol
 _atom_site_label
 _atom_site_symmetry_multiplicity
 _atom_site_fract_x
 _atom_site_fract_y
 _atom_site_fract_z
 _atom_site_occupancy
  Ti  Ti1  1  0.431398  0.431398  0.874338  1.0
  Cu  Cu2  1  0.964219  0.964219  0.029250  1.0
  Cu  Cu3  1  0.021058  0.021058  0.645875  1.0
  Cu  Cu4  1  0.650910  0.650910  0.406591  1.0
  O  O5  1  0.012165  0.012165  0.104092  1.0
  O  O6  1  0.114130  0.114130  0.690962  1.0
  O  O7  1  0.950678  0.950678  0.585982  1.0
  O  O8  1  0.855439  0.855439  0.996242  1.0
