# generated using pymatgen
data_LiFeO2
_symmetry_space_group_name_H-M   'P 1'
_cell_length_a   4.13875013
_cell_length_b   6.12498935
_cell_length_c   2.97727732
_cell_angle_alpha   90.00002851
_cell_angle_beta   90.00004661
_cell_angle_gamma   89.99987915
_symmetry_Int_Tables_number   1
_chemical_formula_structural   LiFeO2
_chemical_formula_sum   'Li2 Fe2 O4'
_cell_volume   75.47338600
_cell_formula_units_Z   2
loop_
 _symmetry_equiv_pos_site_id
 _symmetry_equiv_pos_as_xyz
  1  'x, y, z'
loop_
 _atom_site_type_symbol
 _atom_site_label
 _atom_site_symmetry_multiplicity
 _atom_site_fract_x
 _atom_site_fract_y
 _atom_site_fract_z
 _atom_site_occupancy
  Li  Li1  1  0.250001  0.105650  0.250001  1.0
  Li  Li2  1  0.749999  0.894396  0.750000  1.0
  Fe  Fe3  1  0.249997  0.643536  0.249996  1.0
  Fe  Fe4  1  0.750001  0.356455  0.750003  1.0
  O  O5  1  0.250001  0.398444  0.750001  1.0
  O  O6  1  0.249999  0.857554  0.749998  1.0
  O  O7  1  0.750001  0.142422  0.250001  1.0
  O  O8  1  0.750000  0.601543  0.250000  1.0
