# generated using pymatgen
data_MnV2O6
_symmetry_space_group_name_H-M   'P 1'
_cell_length_a   6.94416464
_cell_length_b   6.94416535
_cell_length_c   5.93628877
_cell_angle_alpha   74.40545958
_cell_angle_beta   105.59453223
_cell_angle_gamma   95.83110030
_symmetry_Int_Tables_number   1
_chemical_formula_structural   MnV2O6
_chemical_formula_sum   'Mn2 V4 O12'
_cell_volume   265.43627904
_cell_formula_units_Z   2
loop_
 _symmetry_equiv_pos_site_id
 _symmetry_equiv_pos_as_xyz
  1  'x, y, z'
loop_
 _atom_site_type_symbol
 _atom_site_label
 _atom_site_symmetry_multiplicity
 _atom_site_fract_x
 _atom_site_fract_y
 _atom_site_fract_z
 _atom_site_occupancy
  Mn  Mn1  1  0.088304  0.088304  0.750000  1.0
  Mn  Mn2  1  0.911696  0.911696  0.250000  1.0
  V  V3  1  0.209038  0.611307  0.764385  1.0
  V  V4  1  0.388693  0.790962  0.264385  1.0
  V  V5  1  0.611307  0.209038  0.735615  1.0
  V  V6  1  0.790962  0.388693  0.235615  1.0
  O  O7  1  0.039973  0.800470  0.643828  1.0
  O  O8  1  0.092264  0.384938  0.791186  1.0
  O  O9  1  0.199530  0.960027  0.143828  1.0
  O  O10  1  0.362750  0.642371  0.555501  1.0
  O  O11  1  0.384938  0.092264  0.708814  1.0
  O  O12  1  0.357629  0.637250  0.055501  1.0
  O  O13  1  0.642371  0.362750  0.944499  1.0
  O  O14  1  0.615062  0.907736  0.291186  1.0
  O  O15  1  0.637250  0.357629  0.444499  1.0
  O  O16  1  0.800470  0.039973  0.856172  1.0
  O  O17  1  0.907736  0.615062  0.208814  1.0
  O  O18  1  0.960027  0.199530  0.356172  1.0
