# generated using pymatgen
data_MoO2
_symmetry_space_group_name_H-M   'P 1'
_cell_length_a   6.55967677
_cell_length_b   6.32274738
_cell_length_c   6.35704902
_cell_angle_alpha   59.47888227
_cell_angle_beta   89.84235255
_cell_angle_gamma   119.87422786
_symmetry_Int_Tables_number   1
_chemical_formula_structural   MoO2
_chemical_formula_sum   'Mo4 O8'
_cell_volume   185.04733703
_cell_formula_units_Z   4
loop_
 _symmetry_equiv_pos_site_id
 _symmetry_equiv_pos_as_xyz
  1  'x, y, z'
loop_
 _atom_site_type_symbol
 _atom_site_label
 _atom_site_symmetry_multiplicity
 _atom_site_fract_x
 _atom_site_fract_y
 _atom_site_fract_z
 _atom_site_occupancy
  Mo  Mo1  1  0.498906  0.997499  0.502593  1.0
  Mo  Mo2  1  0.499972  0.500100  0.498848  1.0
  Mo  Mo3  1  0.000075  0.500064  0.498560  1.0
  Mo  Mo4  1  0.501085  0.002577  0.999957  1.0
  O  O5  1  0.717340  0.457071  0.313141  1.0
  O  O6  1  0.718704  0.441389  0.751081  1.0
  O  O7  1  0.280574  0.539954  0.686890  1.0
  O  O8  1  0.292700  0.983874  0.257398  1.0
  O  O9  1  0.283397  0.561446  0.246243  1.0
  O  O10  1  0.694154  0.964461  0.257788  1.0
  O  O11  1  0.707509  0.016391  0.743502  1.0
  O  O12  1  0.305590  0.035180  0.743998  1.0
