# generated using pymatgen
data_MnCN2
_symmetry_space_group_name_H-M   'P 1'
_cell_length_a   5.17148568
_cell_length_b   5.17148567
_cell_length_c   5.17148568
_cell_angle_alpha   37.99208108
_cell_angle_beta   37.99208119
_cell_angle_gamma   37.99208111
_symmetry_Int_Tables_number   1
_chemical_formula_structural   MnCN2
_chemical_formula_sum   'Mn1 C1 N2'
_cell_volume   47.04078426
_cell_formula_units_Z   1
loop_
 _symmetry_equiv_pos_site_id
 _symmetry_equiv_pos_as_xyz
  1  'x, y, z'
loop_
 _atom_site_type_symbol
 _atom_site_label
 _atom_site_symmetry_multiplicity
 _atom_site_fract_x
 _atom_site_fract_y
 _atom_site_fract_z
 _atom_site_occupancy
  Mn  Mn1  1  0.000000  0.000000  0.000000  1.0
  C  C2  1  0.500000  0.500000  0.500000  1.0
  N  N3  1  0.413873  0.413873  0.413873  1.0
  N  N4  1  0.586127  0.586127  0.586127  1.0
