# generated using pymatgen
data_V4O7
_symmetry_space_group_name_H-M   'P 1'
_cell_length_a   5.84422879
_cell_length_b   6.27035271
_cell_length_c   7.68407642
_cell_angle_alpha   74.37261087
_cell_angle_beta   74.91186547
_cell_angle_gamma   81.30329446
_symmetry_Int_Tables_number   1
_chemical_formula_structural   V4O7
_chemical_formula_sum   'V8 O14'
_cell_volume   260.83095624
_cell_formula_units_Z   2
loop_
 _symmetry_equiv_pos_site_id
 _symmetry_equiv_pos_as_xyz
  1  'x, y, z'
loop_
 _atom_site_type_symbol
 _atom_site_label
 _atom_site_symmetry_multiplicity
 _atom_site_fract_x
 _atom_site_fract_y
 _atom_site_fract_z
 _atom_site_occupancy
  V  V1  1  0.653378  0.096514  0.288930  1.0
  V  V2  1  0.346620  0.903467  0.711075  1.0
  V  V3  1  0.473794  0.413933  0.837546  1.0
  V  V4  1  0.526238  0.586037  0.162442  1.0
  V  V5  1  0.098931  0.246606  0.259444  1.0
  V  V6  1  0.901041  0.753395  0.740647  1.0
  V  V7  1  0.162387  0.337168  0.606619  1.0
  V  V8  1  0.837582  0.662815  0.393396  1.0
  O  O9  1  0.764766  0.369087  0.336349  1.0
  O  O10  1  0.235221  0.630933  0.663622  1.0
  O  O11  1  0.175915  0.511584  0.333862  1.0
  O  O12  1  0.824049  0.488403  0.666170  1.0
  O  O13  1  0.579718  0.812002  0.267058  1.0
  O  O14  1  0.420269  0.187984  0.732960  1.0
  O  O15  1  0.828829  0.670799  0.973106  1.0
  O  O16  1  0.171225  0.329256  0.026818  1.0
  O  O17  1  0.679083  0.883760  0.566544  1.0
  O  O18  1  0.320942  0.116245  0.433454  1.0
  O  O19  1  0.401156  0.712836  0.922481  1.0
  O  O20  1  0.598868  0.287170  0.077479  1.0
  O  O21  1  0.030416  0.030698  0.725935  1.0
  O  O22  1  0.969572  0.969303  0.274071  1.0
