# generated using pymatgen
data_LiCuF3
_symmetry_space_group_name_H-M   'P 1'
_cell_length_a   5.13127136
_cell_length_b   5.53269357
_cell_length_c   5.13127136
_cell_angle_alpha   89.99999913
_cell_angle_beta   119.99999460
_cell_angle_gamma   62.37240650
_symmetry_Int_Tables_number   1
_chemical_formula_structural   LiCuF3
_chemical_formula_sum   'Li2 Cu2 F6'
_cell_volume   106.54860048
_cell_formula_units_Z   2
loop_
 _symmetry_equiv_pos_site_id
 _symmetry_equiv_pos_as_xyz
  1  'x, y, z'
loop_
 _atom_site_type_symbol
 _atom_site_label
 _atom_site_symmetry_multiplicity
 _atom_site_fract_x
 _atom_site_fract_y
 _atom_site_fract_z
 _atom_site_occupancy
  Li  Li1  1  0.388622  0.417067  0.194311  1.0
  Li  Li2  1  0.388622  0.917067  0.694311  1.0
  Cu  Cu3  1  0.978891  0.531664  0.489445  1.0
  Cu  Cu4  1  0.978891  0.031664  0.989445  1.0
  F  F5  1  0.153441  0.253226  0.267735  1.0
  F  F6  1  0.153441  0.753226  0.385707  1.0
  F  F7  1  0.479039  0.753226  0.093332  1.0
  F  F8  1  0.479039  0.253226  0.885707  1.0
  F  F9  1  0.861067  0.253226  0.593332  1.0
  F  F10  1  0.861067  0.753226  0.767735  1.0
