# generated using pymatgen
data_NaHoF4
_symmetry_space_group_name_H-M   'P 1'
_cell_length_a   7.73060038
_cell_length_b   10.18173965
_cell_length_c   6.62605243
_cell_angle_alpha   29.27717623
_cell_angle_beta   54.30954950
_cell_angle_gamma   40.59729048
_symmetry_Int_Tables_number   1
_chemical_formula_structural   NaHoF4
_chemical_formula_sum   'Na2 Ho2 F8'
_cell_volume   160.78974636
_cell_formula_units_Z   2
loop_
 _symmetry_equiv_pos_site_id
 _symmetry_equiv_pos_as_xyz
  1  'x, y, z'
loop_
 _atom_site_type_symbol
 _atom_site_label
 _atom_site_symmetry_multiplicity
 _atom_site_fract_x
 _atom_site_fract_y
 _atom_site_fract_z
 _atom_site_occupancy
  Na  Na1  1  0.999999  0.000006  0.000004  1.0
  Na  Na2  1  0.750011  0.500003  0.999993  1.0
  Ho  Ho3  1  0.500002  0.000007  0.999987  1.0
  Ho  Ho4  1  0.249997  0.499992  0.000017  1.0
  F  F5  1  0.374994  0.479565  0.270452  1.0
  F  F6  1  0.145398  0.479601  0.770421  1.0
  F  F7  1  0.145392  0.979618  0.270392  1.0
  F  F8  1  0.875000  0.520443  0.229543  1.0
  F  F9  1  0.604596  0.520387  0.729592  1.0
  F  F10  1  0.604604  0.020388  0.229583  1.0
  F  F11  1  0.375009  0.020433  0.729552  1.0
  F  F12  1  0.874998  0.979555  0.770465  1.0
