# generated using pymatgen
data_Fe4O5F3
_symmetry_space_group_name_H-M   'P 1'
_cell_length_a   5.64000113
_cell_length_b   5.64000113
_cell_length_c   5.64000113
_cell_angle_alpha   69.24593248
_cell_angle_beta   102.65173308
_cell_angle_gamma   64.74686318
_symmetry_Int_Tables_number   1
_chemical_formula_structural   Fe4O5F3
_chemical_formula_sum   'Fe4 O5 F3'
_cell_volume   136.42354708
_cell_formula_units_Z   1
loop_
 _symmetry_equiv_pos_site_id
 _symmetry_equiv_pos_as_xyz
  1  'x, y, z'
loop_
 _atom_site_type_symbol
 _atom_site_label
 _atom_site_symmetry_multiplicity
 _atom_site_fract_x
 _atom_site_fract_y
 _atom_site_fract_z
 _atom_site_occupancy
  Fe  Fe1  1  0.738746  0.750000  0.488746  1.0
  Fe  Fe2  1  0.278097  0.250000  0.528097  1.0
  Fe  Fe3  1  0.498961  0.491204  0.990165  1.0
  Fe  Fe4  1  0.981370  0.008796  0.990165  1.0
  O  O5  1  0.562974  0.250000  0.812974  1.0
  O  O6  1  0.494787  0.811683  0.695697  1.0
  O  O7  1  0.007380  0.299091  0.695697  1.0
  O  O8  1  0.494787  0.200909  0.306471  1.0
  O  O9  1  0.007380  0.688317  0.306471  1.0
  F  F10  1  0.054777  0.750000  0.804777  1.0
  F  F11  1  0.942461  0.250000  0.192461  1.0
  F  F12  1  0.438281  0.750000  0.188281  1.0
