# generated using pymatgen
data_Rb2PdI6
_symmetry_space_group_name_H-M   'P 1'
_cell_length_a   8.09637782
_cell_length_b   8.09637788
_cell_length_c   8.09637699
_cell_angle_alpha   59.99999927
_cell_angle_beta   59.99999904
_cell_angle_gamma   59.99999709
_symmetry_Int_Tables_number   1
_chemical_formula_structural   Rb2PdI6
_chemical_formula_sum   'Rb2 Pd1 I6'
_cell_volume   375.28157718
_cell_formula_units_Z   1
loop_
 _symmetry_equiv_pos_site_id
 _symmetry_equiv_pos_as_xyz
  1  'x, y, z'
loop_
 _atom_site_type_symbol
 _atom_site_label
 _atom_site_symmetry_multiplicity
 _atom_site_fract_x
 _atom_site_fract_y
 _atom_site_fract_z
 _atom_site_occupancy
  Rb  Rb1  1  0.250000  0.250000  0.250000  1.0
  Rb  Rb2  1  0.750000  0.750000  0.750000  1.0
  Pd  Pd3  1  0.000000  0.000000  0.000000  1.0
  I  I4  1  0.761925  0.761925  0.238075  1.0
  I  I5  1  0.761925  0.238075  0.238075  1.0
  I  I6  1  0.238075  0.761925  0.238075  1.0
  I  I7  1  0.238075  0.761925  0.761925  1.0
  I  I8  1  0.238075  0.238075  0.761925  1.0
  I  I9  1  0.761925  0.238075  0.761925  1.0
