# generated using pymatgen
data_VFeO4
_symmetry_space_group_name_H-M   'P 1'
_cell_length_a   5.80526858
_cell_length_b   5.80526826
_cell_length_c   5.80526825
_cell_angle_alpha   119.08832436
_cell_angle_beta   115.56650818
_cell_angle_gamma   94.71987223
_symmetry_Int_Tables_number   1
_chemical_formula_structural   VFeO4
_chemical_formula_sum   'V2 Fe2 O8'
_cell_volume   143.24978644
_cell_formula_units_Z   2
loop_
 _symmetry_equiv_pos_site_id
 _symmetry_equiv_pos_as_xyz
  1  'x, y, z'
loop_
 _atom_site_type_symbol
 _atom_site_label
 _atom_site_symmetry_multiplicity
 _atom_site_fract_x
 _atom_site_fract_y
 _atom_site_fract_z
 _atom_site_occupancy
  V  V1  1  0.362421  0.612421  0.750000  1.0
  V  V2  1  0.637579  0.387579  0.250000  1.0
  Fe  Fe3  1  0.000000  0.000000  0.000000  1.0
  Fe  Fe4  1  0.500000  0.000000  0.500000  1.0
  O  O5  1  0.247054  0.227841  0.480787  1.0
  O  O6  1  0.273631  0.741944  0.531687  1.0
  O  O7  1  0.710256  0.741944  0.968313  1.0
  O  O8  1  0.752946  0.233734  0.980787  1.0
  O  O9  1  0.247054  0.766266  0.019213  1.0
  O  O10  1  0.289744  0.258056  0.031687  1.0
  O  O11  1  0.726369  0.258056  0.468313  1.0
  O  O12  1  0.752946  0.772159  0.519213  1.0
