# generated using pymatgen
data_Li(Fe3P2)2
_symmetry_space_group_name_H-M   'P 1'
_cell_length_a   6.70344352
_cell_length_b   6.70128929
_cell_length_c   3.23213787
_cell_angle_alpha   90.00000000
_cell_angle_beta   90.00000000
_cell_angle_gamma   120.00734535
_symmetry_Int_Tables_number   1
_chemical_formula_structural   Li(Fe3P2)2
_chemical_formula_sum   'Li1 Fe6 P4'
_cell_volume   125.73166907
_cell_formula_units_Z   1
loop_
 _symmetry_equiv_pos_site_id
 _symmetry_equiv_pos_as_xyz
  1  'x, y, z'
loop_
 _atom_site_type_symbol
 _atom_site_label
 _atom_site_symmetry_multiplicity
 _atom_site_fract_x
 _atom_site_fract_y
 _atom_site_fract_z
 _atom_site_occupancy
  Li  Li1  1  0.999680  0.999965  0.000000  1.0
  Fe  Fe2  1  0.199255  0.800386  0.500000  1.0
  Fe  Fe3  1  0.199240  0.398979  0.500000  1.0
  Fe  Fe4  1  0.600732  0.800434  0.500000  1.0
  Fe  Fe5  1  0.539202  0.460597  0.000000  1.0
  Fe  Fe6  1  0.539355  0.078660  0.000000  1.0
  Fe  Fe7  1  0.921875  0.460814  0.000000  1.0
  P  P8  1  0.335224  0.667567  0.000000  1.0
  P  P9  1  0.359578  0.179820  0.500000  1.0
  P  P10  1  0.819556  0.640955  0.500000  1.0
  P  P11  1  0.819662  0.178583  0.500000  1.0
