# generated using pymatgen
data_AlSbO4
_symmetry_space_group_name_H-M   'P 1'
_cell_length_a   3.05552592
_cell_length_b   4.53104849
_cell_length_c   4.53104849
_cell_angle_alpha   91.16121498
_cell_angle_beta   90.00000000
_cell_angle_gamma   90.00000000
_symmetry_Int_Tables_number   1
_chemical_formula_structural   AlSbO4
_chemical_formula_sum   'Al1 Sb1 O4'
_cell_volume   62.71828758
_cell_formula_units_Z   1
loop_
 _symmetry_equiv_pos_site_id
 _symmetry_equiv_pos_as_xyz
  1  'x, y, z'
loop_
 _atom_site_type_symbol
 _atom_site_label
 _atom_site_symmetry_multiplicity
 _atom_site_fract_x
 _atom_site_fract_y
 _atom_site_fract_z
 _atom_site_occupancy
  Al  Al1  1  0.500000  0.500000  0.500000  1.0
  Sb  Sb2  1  0.000000  0.000000  0.000000  1.0
  O  O3  1  0.000000  0.688538  0.688538  1.0
  O  O4  1  0.500000  0.202142  0.797858  1.0
  O  O5  1  0.500000  0.797858  0.202142  1.0
  O  O6  1  0.000000  0.311462  0.311462  1.0
