# generated using pymatgen
data_LiFeO2
_symmetry_space_group_name_H-M   'P 1'
_cell_length_a   5.96937246
_cell_length_b   5.96939490
_cell_length_c   5.96939662
_cell_angle_alpha   89.97352785
_cell_angle_beta   59.98601737
_cell_angle_gamma   59.98605077
_symmetry_Int_Tables_number   1
_chemical_formula_structural   LiFeO2
_chemical_formula_sum   'Li4 Fe4 O8'
_cell_volume   150.38043911
_cell_formula_units_Z   4
loop_
 _symmetry_equiv_pos_site_id
 _symmetry_equiv_pos_as_xyz
  1  'x, y, z'
loop_
 _atom_site_type_symbol
 _atom_site_label
 _atom_site_symmetry_multiplicity
 _atom_site_fract_x
 _atom_site_fract_y
 _atom_site_fract_z
 _atom_site_occupancy
  Li  Li1  1  0.500000  0.500000  0.500000  1.0
  Li  Li2  1  0.500000  0.500000  0.000000  1.0
  Li  Li3  1  0.000000  0.500000  0.500000  1.0
  Li  Li4  1  0.000000  0.000000  0.500000  1.0
  Fe  Fe5  1  0.500000  0.000000  0.500000  1.0
  Fe  Fe6  1  0.500000  0.000000  0.000000  1.0
  Fe  Fe7  1  0.000000  0.500000  0.000000  1.0
  Fe  Fe8  1  0.000000  0.000000  0.000000  1.0
  O  O9  1  0.987581  0.756194  0.768612  1.0
  O  O10  1  0.987574  0.756226  0.243810  1.0
  O  O11  1  0.487581  0.768612  0.756194  1.0
  O  O12  1  0.512426  0.756190  0.243774  1.0
  O  O13  1  0.487574  0.243810  0.756226  1.0
  O  O14  1  0.512419  0.231388  0.243806  1.0
  O  O15  1  0.012426  0.243774  0.756190  1.0
  O  O16  1  0.012419  0.243806  0.231388  1.0
