# generated using pymatgen
data_Li2CrFeO4
_symmetry_space_group_name_H-M   'P 1'
_cell_length_a   2.97472507
_cell_length_b   5.16484850
_cell_length_c   5.15235886
_cell_angle_alpha   80.45286012
_cell_angle_beta   90.00123003
_cell_angle_gamma   106.74255804
_symmetry_Int_Tables_number   1
_chemical_formula_structural   Li2CrFeO4
_chemical_formula_sum   'Li2 Cr1 Fe1 O4'
_cell_volume   74.65954059
_cell_formula_units_Z   1
loop_
 _symmetry_equiv_pos_site_id
 _symmetry_equiv_pos_as_xyz
  1  'x, y, z'
loop_
 _atom_site_type_symbol
 _atom_site_label
 _atom_site_symmetry_multiplicity
 _atom_site_fract_x
 _atom_site_fract_y
 _atom_site_fract_z
 _atom_site_occupancy
  Li  Li1  1  0.499233  0.998449  0.501244  1.0
  Li  Li2  1  0.000766  0.001551  0.998756  1.0
  Cr  Cr3  1  0.750000  0.500000  0.750000  1.0
  Fe  Fe4  1  0.250000  0.500000  0.250000  1.0
  O  O5  1  0.864302  0.728542  0.380189  1.0
  O  O6  1  0.635698  0.271457  0.119811  1.0
  O  O7  1  0.362851  0.725619  0.877649  1.0
  O  O8  1  0.137149  0.274381  0.622351  1.0
