# generated using pymatgen
data_Na(Cu3O4)2
_symmetry_space_group_name_H-M   'P 1'
_cell_length_a   6.48098754
_cell_length_b   6.48098754
_cell_length_c   6.48098754
_cell_angle_alpha   60.00000000
_cell_angle_beta   90.00000000
_cell_angle_gamma   120.00000000
_symmetry_Int_Tables_number   1
_chemical_formula_structural   Na(Cu3O4)2
_chemical_formula_sum   'Na1 Cu6 O8'
_cell_volume   192.49017249
_cell_formula_units_Z   1
loop_
 _symmetry_equiv_pos_site_id
 _symmetry_equiv_pos_as_xyz
  1  'x, y, z'
loop_
 _atom_site_type_symbol
 _atom_site_label
 _atom_site_symmetry_multiplicity
 _atom_site_fract_x
 _atom_site_fract_y
 _atom_site_fract_z
 _atom_site_occupancy
  Na  Na1  1  0.000000  0.000000  0.000000  1.0
  Cu  Cu2  1  0.500000  0.000000  0.000000  1.0
  Cu  Cu3  1  0.500000  0.500000  0.000000  1.0
  Cu  Cu4  1  0.000000  0.500000  0.000000  1.0
  Cu  Cu5  1  0.000000  0.000000  0.500000  1.0
  Cu  Cu6  1  0.500000  0.500000  0.500000  1.0
  Cu  Cu7  1  0.000000  0.500000  0.500000  1.0
  O  O8  1  0.855147  0.710293  0.434560  1.0
  O  O9  1  0.144853  0.289707  0.144853  1.0
  O  O10  1  0.565440  0.710293  0.144853  1.0
  O  O11  1  0.855147  0.289707  0.855147  1.0
  O  O12  1  0.434560  0.289707  0.855147  1.0
  O  O13  1  0.144853  0.710293  0.144853  1.0
  O  O14  1  0.855147  0.710293  0.855147  1.0
  O  O15  1  0.144853  0.289707  0.565440  1.0
