# generated using pymatgen
data_TiFeO4
_symmetry_space_group_name_H-M   'P 1'
_cell_length_a   5.49196590
_cell_length_b   5.49196591
_cell_length_c   5.49196617
_cell_angle_alpha   139.20885153
_cell_angle_beta   139.20884479
_cell_angle_gamma   59.05654458
_symmetry_Int_Tables_number   1
_chemical_formula_structural   TiFeO4
_chemical_formula_sum   'Ti1 Fe1 O4'
_cell_volume   70.02026069
_cell_formula_units_Z   1
loop_
 _symmetry_equiv_pos_site_id
 _symmetry_equiv_pos_as_xyz
  1  'x, y, z'
loop_
 _atom_site_type_symbol
 _atom_site_label
 _atom_site_symmetry_multiplicity
 _atom_site_fract_x
 _atom_site_fract_y
 _atom_site_fract_z
 _atom_site_occupancy
  Ti  Ti1  1  0.750000  0.250000  0.500000  1.0
  Fe  Fe2  1  0.000000  0.000000  0.000000  1.0
  O  O3  1  0.541957  0.041957  0.500000  1.0
  O  O4  1  0.206452  0.206452  0.000000  1.0
  O  O5  1  0.958043  0.458043  0.500000  1.0
  O  O6  1  0.793548  0.793548  0.000000  1.0
