# generated using pymatgen
data_Li2NiO2
_symmetry_space_group_name_H-M   'P 1'
_cell_length_a   3.06913056
_cell_length_b   3.06913103
_cell_length_c   6.63987083
_cell_angle_alpha   76.63735191
_cell_angle_beta   90.00000000
_cell_angle_gamma   59.99999406
_symmetry_Int_Tables_number   1
_chemical_formula_structural   Li2NiO2
_chemical_formula_sum   'Li2 Ni1 O2'
_cell_volume   52.20089050
_cell_formula_units_Z   1
loop_
 _symmetry_equiv_pos_site_id
 _symmetry_equiv_pos_as_xyz
  1  'x, y, z'
loop_
 _atom_site_type_symbol
 _atom_site_label
 _atom_site_symmetry_multiplicity
 _atom_site_fract_x
 _atom_site_fract_y
 _atom_site_fract_z
 _atom_site_occupancy
  Li  Li1  1  0.762765  0.474471  0.288294  1.0
  Li  Li2  1  0.237235  0.525529  0.711706  1.0
  Ni  Ni3  1  0.000000  0.000000  0.000000  1.0
  O  O4  1  0.603460  0.793080  0.810380  1.0
  O  O5  1  0.396540  0.206920  0.189620  1.0
