# generated using pymatgen
data_HBr
_symmetry_space_group_name_H-M   'P 1'
_cell_length_a   4.37309775
_cell_length_b   5.86616963
_cell_length_c   4.57294978
_cell_angle_alpha   47.56735740
_cell_angle_beta   81.91673525
_cell_angle_gamma   50.51590735
_symmetry_Int_Tables_number   1
_chemical_formula_structural   HBr
_chemical_formula_sum   'H1 Br1'
_cell_volume   57.62704742
_cell_formula_units_Z   1
loop_
 _symmetry_equiv_pos_site_id
 _symmetry_equiv_pos_as_xyz
  1  'x, y, z'
loop_
 _atom_site_type_symbol
 _atom_site_label
 _atom_site_symmetry_multiplicity
 _atom_site_fract_x
 _atom_site_fract_y
 _atom_site_fract_z
 _atom_site_occupancy
  H  H1  1  0.000000  0.000000  0.000000  1.0
  Br  Br2  1  0.500000  0.500000  0.500000  1.0
