# generated using pymatgen
data_NiSnO3
_symmetry_space_group_name_H-M   'P 1'
_cell_length_a   5.61267158
_cell_length_b   5.61267179
_cell_length_c   5.61267127
_cell_angle_alpha   56.50909519
_cell_angle_beta   56.50909786
_cell_angle_gamma   56.50909963
_symmetry_Int_Tables_number   1
_chemical_formula_structural   NiSnO3
_chemical_formula_sum   'Ni2 Sn2 O6'
_cell_volume   114.93672844
_cell_formula_units_Z   2
loop_
 _symmetry_equiv_pos_site_id
 _symmetry_equiv_pos_as_xyz
  1  'x, y, z'
loop_
 _atom_site_type_symbol
 _atom_site_label
 _atom_site_symmetry_multiplicity
 _atom_site_fract_x
 _atom_site_fract_y
 _atom_site_fract_z
 _atom_site_occupancy
  Ni  Ni1  1  0.353705  0.353705  0.353705  1.0
  Ni  Ni2  1  0.646295  0.646295  0.646295  1.0
  Sn  Sn3  1  0.146417  0.146417  0.146417  1.0
  Sn  Sn4  1  0.853583  0.853583  0.853583  1.0
  O  O5  1  0.049775  0.752200  0.448972  1.0
  O  O6  1  0.448972  0.049775  0.752200  1.0
  O  O7  1  0.247800  0.551028  0.950225  1.0
  O  O8  1  0.752200  0.448972  0.049775  1.0
  O  O9  1  0.551028  0.950225  0.247800  1.0
  O  O10  1  0.950225  0.247800  0.551028  1.0
