# generated using pymatgen
data_Li2VF6
_symmetry_space_group_name_H-M   'P 1'
_cell_length_a   4.96602988
_cell_length_b   4.96602986
_cell_length_c   4.50472224
_cell_angle_alpha   89.63978637
_cell_angle_beta   90.36021300
_cell_angle_gamma   59.48987778
_symmetry_Int_Tables_number   1
_chemical_formula_structural   Li2VF6
_chemical_formula_sum   'Li2 V1 F6'
_cell_volume   95.70331640
_cell_formula_units_Z   1
loop_
 _symmetry_equiv_pos_site_id
 _symmetry_equiv_pos_as_xyz
  1  'x, y, z'
loop_
 _atom_site_type_symbol
 _atom_site_label
 _atom_site_symmetry_multiplicity
 _atom_site_fract_x
 _atom_site_fract_y
 _atom_site_fract_z
 _atom_site_occupancy
  Li  Li1  1  0.330145  0.330101  0.500116  1.0
  Li  Li2  1  0.669899  0.669855  0.500116  1.0
  V  V3  1  0.000068  0.999932  0.000017  1.0
  F  F4  1  0.000952  0.686368  0.247358  1.0
  F  F5  1  0.305016  0.694984  0.761161  1.0
  F  F6  1  0.686551  0.000825  0.752573  1.0
  F  F7  1  0.313632  0.999048  0.247358  1.0
  F  F8  1  0.695099  0.304901  0.238803  1.0
  F  F9  1  0.999175  0.313449  0.752573  1.0
