# generated using pymatgen
data_Cu2OF2
_symmetry_space_group_name_H-M   'P 1'
_cell_length_a   5.70585834
_cell_length_b   5.70585834
_cell_length_c   6.48957520
_cell_angle_alpha   63.92053268
_cell_angle_beta   63.92053268
_cell_angle_gamma   90.00000000
_symmetry_Int_Tables_number   1
_chemical_formula_structural   Cu2OF2
_chemical_formula_sum   'Cu4 O2 F4'
_cell_volume   165.48401317
_cell_formula_units_Z   2
loop_
 _symmetry_equiv_pos_site_id
 _symmetry_equiv_pos_as_xyz
  1  'x, y, z'
loop_
 _atom_site_type_symbol
 _atom_site_label
 _atom_site_symmetry_multiplicity
 _atom_site_fract_x
 _atom_site_fract_y
 _atom_site_fract_z
 _atom_site_occupancy
  Cu  Cu1  1  0.000000  0.000000  0.000000  1.0
  Cu  Cu2  1  0.500000  0.000000  0.000000  1.0
  Cu  Cu3  1  0.000000  0.000000  0.500000  1.0
  Cu  Cu4  1  0.000000  0.500000  0.500000  1.0
  O  O5  1  0.875000  0.125000  0.750000  1.0
  O  O6  1  0.125000  0.875000  0.250000  1.0
  F  F7  1  0.379144  0.129144  0.741711  1.0
  F  F8  1  0.129144  0.379144  0.241711  1.0
  F  F9  1  0.870856  0.620856  0.758289  1.0
  F  F10  1  0.620856  0.870856  0.258289  1.0
