# generated using pymatgen
data_LiVF4
_symmetry_space_group_name_H-M   'P 1'
_cell_length_a   6.81820674
_cell_length_b   5.66974008
_cell_length_c   5.66974049
_cell_angle_alpha   70.21317140
_cell_angle_beta   52.72834424
_cell_angle_gamma   52.72833627
_symmetry_Int_Tables_number   1
_chemical_formula_structural   LiVF4
_chemical_formula_sum   'Li2 V2 F8'
_cell_volume   138.65746721
_cell_formula_units_Z   2
loop_
 _symmetry_equiv_pos_site_id
 _symmetry_equiv_pos_as_xyz
  1  'x, y, z'
loop_
 _atom_site_type_symbol
 _atom_site_label
 _atom_site_symmetry_multiplicity
 _atom_site_fract_x
 _atom_site_fract_y
 _atom_site_fract_z
 _atom_site_occupancy
  Li  Li1  1  0.250000  0.249979  0.750021  1.0
  Li  Li2  1  0.750000  0.750021  0.249979  1.0
  V  V3  1  0.000000  0.000000  0.500000  1.0
  V  V4  1  0.500000  0.500000  0.000000  1.0
  F  F5  1  0.063834  0.748085  0.245504  1.0
  F  F6  1  0.001046  0.705533  0.792511  1.0
  F  F7  1  0.498954  0.207489  0.294467  1.0
  F  F8  1  0.436166  0.754496  0.251915  1.0
  F  F9  1  0.563834  0.245504  0.748085  1.0
  F  F10  1  0.501046  0.792511  0.705533  1.0
  F  F11  1  0.998954  0.294467  0.207489  1.0
  F  F12  1  0.936166  0.251915  0.754496  1.0
