# generated using pymatgen
data_Yb3N2
_symmetry_space_group_name_H-M   'P 1'
_cell_length_a   6.12798777
_cell_length_b   6.12798846
_cell_length_c   6.47615163
_cell_angle_alpha   118.23698848
_cell_angle_beta   61.76301095
_cell_angle_gamma   120.00000172
_symmetry_Int_Tables_number   1
_chemical_formula_structural   Yb3N2
_chemical_formula_sum   'Yb6 N4'
_cell_volume   176.40498367
_cell_formula_units_Z   2
loop_
 _symmetry_equiv_pos_site_id
 _symmetry_equiv_pos_as_xyz
  1  'x, y, z'
loop_
 _atom_site_type_symbol
 _atom_site_label
 _atom_site_symmetry_multiplicity
 _atom_site_fract_x
 _atom_site_fract_y
 _atom_site_fract_z
 _atom_site_occupancy
  Yb  Yb1  1  0.250000  0.045908  0.250000  1.0
  Yb  Yb2  1  0.954091  0.454092  0.250000  1.0
  Yb  Yb3  1  0.545907  0.750000  0.250000  1.0
  Yb  Yb4  1  0.454091  0.250000  0.750000  1.0
  Yb  Yb5  1  0.045910  0.545910  0.750000  1.0
  Yb  Yb6  1  0.750000  0.954092  0.750000  1.0
  N  N7  1  0.645512  0.354488  0.063465  1.0
  N  N8  1  0.854488  0.145512  0.436535  1.0
  N  N9  1  0.145512  0.854488  0.563463  1.0
  N  N10  1  0.354488  0.645513  0.936538  1.0
