# generated using pymatgen
data_VRhO4
_symmetry_space_group_name_H-M   'P 1'
_cell_length_a   5.50387994
_cell_length_b   5.50387994
_cell_length_c   5.50387994
_cell_angle_alpha   73.31654027
_cell_angle_beta   106.68345973
_cell_angle_gamma   64.79666254
_symmetry_Int_Tables_number   1
_chemical_formula_structural   VRhO4
_chemical_formula_sum   'V2 Rh2 O8'
_cell_volume   127.37368320
_cell_formula_units_Z   2
loop_
 _symmetry_equiv_pos_site_id
 _symmetry_equiv_pos_as_xyz
  1  'x, y, z'
loop_
 _atom_site_type_symbol
 _atom_site_label
 _atom_site_symmetry_multiplicity
 _atom_site_fract_x
 _atom_site_fract_y
 _atom_site_fract_z
 _atom_site_occupancy
  V  V1  1  0.258934  0.241066  0.500000  1.0
  V  V2  1  0.008934  0.991066  0.000000  1.0
  Rh  Rh3  1  0.746619  0.753381  0.500000  1.0
  Rh  Rh4  1  0.496619  0.503381  0.000000  1.0
  O  O5  1  0.574728  0.233044  0.807773  1.0
  O  O6  1  0.030715  0.769732  0.800446  1.0
  O  O7  1  0.016956  0.290817  0.692227  1.0
  O  O8  1  0.480268  0.820179  0.699554  1.0
  O  O9  1  0.016956  0.675272  0.307773  1.0
  O  O10  1  0.480268  0.219285  0.300446  1.0
  O  O11  1  0.959183  0.233044  0.192227  1.0
  O  O12  1  0.429821  0.769732  0.199554  1.0
