# generated using pymatgen
data_Bi3BrO4
_symmetry_space_group_name_H-M   'P 1'
_cell_length_a   3.99056889
_cell_length_b   5.64311335
_cell_length_c   11.00897200
_cell_angle_alpha   120.83629541
_cell_angle_beta   110.99413815
_cell_angle_gamma   45.00430880
_symmetry_Int_Tables_number   1
_chemical_formula_structural   Bi3BrO4
_chemical_formula_sum   'Bi3 Br1 O4'
_cell_volume   150.52776682
_cell_formula_units_Z   1
loop_
 _symmetry_equiv_pos_site_id
 _symmetry_equiv_pos_as_xyz
  1  'x, y, z'
loop_
 _atom_site_type_symbol
 _atom_site_label
 _atom_site_symmetry_multiplicity
 _atom_site_fract_x
 _atom_site_fract_y
 _atom_site_fract_z
 _atom_site_occupancy
  Bi  Bi1  1  0.511110  0.767894  0.273497  1.0
  Bi  Bi2  1  0.528235  0.212337  0.726504  1.0
  Bi  Bi3  1  0.524609  0.987810  0.000100  1.0
  Br  Br4  1  0.522401  0.488669  0.499840  1.0
  O  O5  1  0.018599  0.148723  0.157922  1.0
  O  O6  1  0.022815  0.330677  0.842093  1.0
  O  O7  1  0.022737  0.830681  0.842103  1.0
  O  O8  1  0.018587  0.648496  0.157940  1.0
