# generated using pymatgen
data_LiV3O8
_symmetry_space_group_name_H-M   'P 1'
_cell_length_a   5.56679799
_cell_length_b   5.56679799
_cell_length_c   5.94774493
_cell_angle_alpha   90.02131215
_cell_angle_beta   90.02131215
_cell_angle_gamma   59.98025923
_symmetry_Int_Tables_number   1
_chemical_formula_structural   LiV3O8
_chemical_formula_sum   'Li1 V3 O8'
_cell_volume   159.59064351
_cell_formula_units_Z   1
loop_
 _symmetry_equiv_pos_site_id
 _symmetry_equiv_pos_as_xyz
  1  'x, y, z'
loop_
 _atom_site_type_symbol
 _atom_site_label
 _atom_site_symmetry_multiplicity
 _atom_site_fract_x
 _atom_site_fract_y
 _atom_site_fract_z
 _atom_site_occupancy
  Li  Li1  1  0.000007  0.999993  0.000000  1.0
  V  V2  1  0.333567  0.333553  0.775646  1.0
  V  V3  1  0.666447  0.666433  0.224354  1.0
  V  V4  1  0.999998  0.000002  0.500000  1.0
  O  O5  1  0.156674  0.688060  0.689972  1.0
  O  O6  1  0.311940  0.843326  0.310028  1.0
  O  O7  1  0.332941  0.333094  0.051057  1.0
  O  O8  1  0.666906  0.667059  0.948943  1.0
  O  O9  1  0.843310  0.843325  0.311809  1.0
  O  O10  1  0.156675  0.156690  0.688191  1.0
  O  O11  1  0.688130  0.156606  0.690045  1.0
  O  O12  1  0.843394  0.311870  0.309955  1.0
