# generated using pymatgen
data_KTiO3
_symmetry_space_group_name_H-M   'P 1'
_cell_length_a   3.69171787
_cell_length_b   3.69172174
_cell_length_c   5.76689714
_cell_angle_alpha   90.00051064
_cell_angle_beta   89.99999079
_cell_angle_gamma   90.00005122
_symmetry_Int_Tables_number   1
_chemical_formula_structural   KTiO3
_chemical_formula_sum   'K1 Ti1 O3'
_cell_volume   78.59585959
_cell_formula_units_Z   1
loop_
 _symmetry_equiv_pos_site_id
 _symmetry_equiv_pos_as_xyz
  1  'x, y, z'
loop_
 _atom_site_type_symbol
 _atom_site_label
 _atom_site_symmetry_multiplicity
 _atom_site_fract_x
 _atom_site_fract_y
 _atom_site_fract_z
 _atom_site_occupancy
  K  K1  1  0.999993  0.000001  0.996277  1.0
  Ti  Ti2  1  0.500002  0.500000  0.494761  1.0
  O  O3  1  0.000001  0.500001  0.605874  1.0
  O  O4  1  0.500003  0.000004  0.605872  1.0
  O  O5  1  0.500001  0.499994  0.194615  1.0
