# generated using pymatgen
data_Li2FeO2
_symmetry_space_group_name_H-M   'P 1'
_cell_length_a   5.40417262
_cell_length_b   5.40417231
_cell_length_c   5.40417255
_cell_angle_alpha   139.50459263
_cell_angle_beta   148.18184636
_cell_angle_gamma   52.39721422
_symmetry_Int_Tables_number   1
_chemical_formula_structural   Li2FeO2
_chemical_formula_sum   'Li2 Fe1 O2'
_cell_volume   53.73701098
_cell_formula_units_Z   1
loop_
 _symmetry_equiv_pos_site_id
 _symmetry_equiv_pos_as_xyz
  1  'x, y, z'
loop_
 _atom_site_type_symbol
 _atom_site_label
 _atom_site_symmetry_multiplicity
 _atom_site_fract_x
 _atom_site_fract_y
 _atom_site_fract_z
 _atom_site_occupancy
  Li  Li1  1  0.287821  0.787821  0.500000  1.0
  Li  Li2  1  0.712179  0.212179  0.500000  1.0
  Fe  Fe3  1  0.000000  0.500000  0.500000  1.0
  O  O4  1  0.354847  0.354847  0.000000  1.0
  O  O5  1  0.645153  0.645153  0.000000  1.0
