# generated using pymatgen
data_TaTiO4
_symmetry_space_group_name_H-M   'P 1'
_cell_length_a   5.66133486
_cell_length_b   5.66133486
_cell_length_c   5.66133486
_cell_angle_alpha   73.20680164
_cell_angle_beta   106.79319836
_cell_angle_gamma   65.02873361
_symmetry_Int_Tables_number   1
_chemical_formula_structural   TaTiO4
_chemical_formula_sum   'Ta2 Ti2 O8'
_cell_volume   138.70545226
_cell_formula_units_Z   2
loop_
 _symmetry_equiv_pos_site_id
 _symmetry_equiv_pos_as_xyz
  1  'x, y, z'
loop_
 _atom_site_type_symbol
 _atom_site_label
 _atom_site_symmetry_multiplicity
 _atom_site_fract_x
 _atom_site_fract_y
 _atom_site_fract_z
 _atom_site_occupancy
  Ta  Ta1  1  0.756197  0.743803  0.500000  1.0
  Ta  Ta2  1  0.506197  0.493803  0.000000  1.0
  Ti  Ti3  1  0.246488  0.253512  0.500000  1.0
  Ti  Ti4  1  0.996488  0.003512  0.000000  1.0
  O  O5  1  0.545614  0.255072  0.800687  1.0
  O  O6  1  0.055019  0.746270  0.801289  1.0
  O  O7  1  0.994927  0.305758  0.699313  1.0
  O  O8  1  0.503730  0.797559  0.698711  1.0
  O  O9  1  0.503730  0.194981  0.301289  1.0
  O  O10  1  0.994927  0.704386  0.300687  1.0
  O  O11  1  0.452441  0.746270  0.198711  1.0
  O  O12  1  0.944242  0.255072  0.199313  1.0
