# generated using pymatgen
data_Mg4Zn7
_symmetry_space_group_name_H-M   'P 1'
_cell_length_a   5.28678052
_cell_length_b   13.15152590
_cell_length_c   14.14062727
_cell_angle_alpha   102.30688481
_cell_angle_beta   90.02732645
_cell_angle_gamma   101.59502986
_symmetry_Int_Tables_number   1
_chemical_formula_structural   Mg4Zn7
_chemical_formula_sum   'Mg20 Zn35'
_cell_volume   940.02583081
_cell_formula_units_Z   5
loop_
 _symmetry_equiv_pos_site_id
 _symmetry_equiv_pos_as_xyz
  1  'x, y, z'
loop_
 _atom_site_type_symbol
 _atom_site_label
 _atom_site_symmetry_multiplicity
 _atom_site_fract_x
 _atom_site_fract_y
 _atom_site_fract_z
 _atom_site_occupancy
  Mg  Mg1  1  0.874479  0.748109  0.899009  1.0
  Mg  Mg2  1  0.031558  0.071477  0.714218  1.0
  Mg  Mg3  1  0.302568  0.610112  0.351761  1.0
  Mg  Mg4  1  0.440150  0.883921  0.952437  1.0
  Mg  Mg5  1  0.480964  0.967484  0.602156  1.0
  Mg  Mg6  1  0.787065  0.571541  0.025719  1.0
  Mg  Mg7  1  0.357578  0.717311  0.573874  1.0
  Mg  Mg8  1  0.556624  0.115799  0.045068  1.0
  Mg  Mg9  1  0.822386  0.645366  0.676270  1.0
  Mg  Mg10  1  0.518246  0.034855  0.397468  1.0
  Mg  Mg11  1  0.692852  0.391569  0.648713  1.0
  Mg  Mg12  1  0.176429  0.358136  0.325182  1.0
  Mg  Mg13  1  0.004620  0.014286  0.904210  1.0
  Mg  Mg14  1  0.835474  0.676708  0.252888  1.0
  Mg  Mg15  1  0.159288  0.323561  0.747522  1.0
  Mg  Mg16  1  0.643322  0.284788  0.425512  1.0
  Mg  Mg17  1  0.123291  0.251658  0.103927  1.0
  Mg  Mg18  1  0.214869  0.428482  0.975926  1.0
  Mg  Mg19  1  0.967755  0.930373  0.285075  1.0
  Mg  Mg20  1  0.990620  0.986872  0.094557  1.0
  Zn  Zn21  1  0.920972  0.845276  0.593172  1.0
  Zn  Zn22  1  0.517212  0.037552  0.821296  1.0
  Zn  Zn23  1  0.261939  0.517780  0.662208  1.0
  Zn  Zn24  1  0.822489  0.137905  0.245429  1.0
  Zn  Zn25  1  0.342054  0.174857  0.572147  1.0
  Zn  Zn26  1  0.682644  0.861583  0.753974  1.0
  Zn  Zn27  1  0.498081  0.498798  0.499585  1.0
  Zn  Zn28  1  0.080248  0.156548  0.406337  1.0
  Zn  Zn29  1  0.688666  0.377595  0.860071  1.0
  Zn  Zn30  1  0.166876  0.825468  0.426969  1.0
  Zn  Zn31  1  0.522905  0.536142  0.825972  1.0
  Zn  Zn32  1  0.330474  0.661424  0.964446  1.0
  Zn  Zn33  1  0.830144  0.663619  0.467131  1.0
  Zn  Zn34  1  0.404538  0.804533  0.268274  1.0
  Zn  Zn35  1  0.478703  0.963689  0.177484  1.0
  Zn  Zn36  1  0.309085  0.623396  0.139643  1.0
  Zn  Zn37  1  0.129425  0.787386  0.102117  1.0
  Zn  Zn38  1  0.830541  0.174103  0.571254  1.0
  Zn  Zn39  1  0.318845  0.139091  0.246680  1.0
  Zn  Zn40  1  0.164834  0.336716  0.533917  1.0
  Zn  Zn41  1  0.868777  0.215395  0.898364  1.0
  Zn  Zn42  1  0.656373  0.825232  0.428056  1.0
  Zn  Zn43  1  0.999118  0.501368  0.501131  1.0
  Zn  Zn44  1  0.350574  0.700846  0.786837  1.0
  Zn  Zn45  1  0.013604  0.535971  0.823839  1.0
  Zn  Zn46  1  0.653509  0.787239  0.103025  1.0
  Zn  Zn47  1  0.650460  0.299791  0.213872  1.0
  Zn  Zn48  1  0.344119  0.213698  0.899032  1.0
  Zn  Zn49  1  0.596568  0.196856  0.731697  1.0
  Zn  Zn50  1  0.982734  0.465649  0.175560  1.0
  Zn  Zn51  1  0.178320  0.862202  0.753338  1.0
  Zn  Zn52  1  0.999888  0.000061  0.498750  1.0
  Zn  Zn53  1  0.471582  0.463993  0.175952  1.0
  Zn  Zn54  1  0.666440  0.340211  0.036457  1.0
  Zn  Zn55  1  0.737809  0.483414  0.338209  1.0
