# generated using pymatgen
data_F2
_symmetry_space_group_name_H-M   'P 1'
_cell_length_a   4.11199353
_cell_length_b   4.11199275
_cell_length_c   6.37572565
_cell_angle_alpha   90.00000000
_cell_angle_beta   90.00000000
_cell_angle_gamma   118.84124274
_symmetry_Int_Tables_number   1
_chemical_formula_structural   F2
_chemical_formula_sum   F4
_cell_volume   94.43185007
_cell_formula_units_Z   2
loop_
 _symmetry_equiv_pos_site_id
 _symmetry_equiv_pos_as_xyz
  1  'x, y, z'
loop_
 _atom_site_type_symbol
 _atom_site_label
 _atom_site_symmetry_multiplicity
 _atom_site_fract_x
 _atom_site_fract_y
 _atom_site_fract_z
 _atom_site_occupancy
  F  F1  1  0.087458  0.087458  0.096013  1.0
  F  F2  1  0.412542  0.412542  0.596013  1.0
  F  F3  1  0.587458  0.587458  0.403987  1.0
  F  F4  1  0.912542  0.912542  0.903987  1.0
