# generated using pymatgen
data_Cs2SnBr6
_symmetry_space_group_name_H-M   'P 1'
_cell_length_a   7.94464956
_cell_length_b   7.94464930
_cell_length_c   7.94464966
_cell_angle_alpha   59.99999851
_cell_angle_beta   59.99999957
_cell_angle_gamma   59.99999865
_symmetry_Int_Tables_number   1
_chemical_formula_structural   Cs2SnBr6
_chemical_formula_sum   'Cs2 Sn1 Br6'
_cell_volume   354.57590346
_cell_formula_units_Z   1
loop_
 _symmetry_equiv_pos_site_id
 _symmetry_equiv_pos_as_xyz
  1  'x, y, z'
loop_
 _atom_site_type_symbol
 _atom_site_label
 _atom_site_symmetry_multiplicity
 _atom_site_fract_x
 _atom_site_fract_y
 _atom_site_fract_z
 _atom_site_occupancy
  Cs  Cs1  1  0.250000  0.250000  0.250000  1.0
  Cs  Cs2  1  0.750000  0.750000  0.750000  1.0
  Sn  Sn3  1  0.000000  0.000000  0.000000  1.0
  Br  Br4  1  0.763230  0.236770  0.236770  1.0
  Br  Br5  1  0.236770  0.763230  0.763230  1.0
  Br  Br6  1  0.236770  0.236770  0.763230  1.0
  Br  Br7  1  0.763230  0.236770  0.763230  1.0
  Br  Br8  1  0.763230  0.763230  0.236770  1.0
  Br  Br9  1  0.236770  0.763230  0.236770  1.0
