# generated using pymatgen
data_LiTi3O4
_symmetry_space_group_name_H-M   'P 1'
_cell_length_a   5.15920100
_cell_length_b   5.95085485
_cell_length_c   6.07588299
_cell_angle_alpha   120.72027741
_cell_angle_beta   53.92293746
_cell_angle_gamma   150.12854182
_symmetry_Int_Tables_number   1
_chemical_formula_structural   LiTi3O4
_chemical_formula_sum   'Li1 Ti3 O4'
_cell_volume   75.08995318
_cell_formula_units_Z   1
loop_
 _symmetry_equiv_pos_site_id
 _symmetry_equiv_pos_as_xyz
  1  'x, y, z'
loop_
 _atom_site_type_symbol
 _atom_site_label
 _atom_site_symmetry_multiplicity
 _atom_site_fract_x
 _atom_site_fract_y
 _atom_site_fract_z
 _atom_site_occupancy
  Li  Li1  1  0.999935  0.499975  0.999992  1.0
  Ti  Ti2  1  0.000048  0.499953  0.499933  1.0
  Ti  Ti3  1  0.999743  0.999791  0.999928  1.0
  Ti  Ti4  1  0.999509  0.999800  0.499895  1.0
  O  O5  1  0.500612  0.000769  0.755508  1.0
  O  O6  1  0.521483  0.499826  0.239014  1.0
  O  O7  1  0.498957  0.999095  0.244559  1.0
  O  O8  1  0.478159  0.499820  0.760686  1.0
