# generated using pymatgen
data_ZrCoO3
_symmetry_space_group_name_H-M   'P 1'
_cell_length_a   5.40991996
_cell_length_b   5.68992128
_cell_length_c   5.40992014
_cell_angle_alpha   118.38506592
_cell_angle_beta   60.00000265
_cell_angle_gamma   118.38507032
_symmetry_Int_Tables_number   1
_chemical_formula_structural   ZrCoO3
_chemical_formula_sum   'Zr2 Co2 O6'
_cell_volume   120.54618125
_cell_formula_units_Z   2
loop_
 _symmetry_equiv_pos_site_id
 _symmetry_equiv_pos_as_xyz
  1  'x, y, z'
loop_
 _atom_site_type_symbol
 _atom_site_label
 _atom_site_symmetry_multiplicity
 _atom_site_fract_x
 _atom_site_fract_y
 _atom_site_fract_z
 _atom_site_occupancy
  Zr  Zr1  1  0.141273  0.423819  0.141273  1.0
  Zr  Zr2  1  0.858727  0.576181  0.858727  1.0
  Co  Co3  1  0.355145  0.065434  0.355145  1.0
  Co  Co4  1  0.644855  0.934566  0.644855  1.0
  O  O5  1  0.048706  0.253142  0.450240  1.0
  O  O6  1  0.450240  0.253142  0.754195  1.0
  O  O7  1  0.754195  0.253142  0.048706  1.0
  O  O8  1  0.245805  0.746858  0.951294  1.0
  O  O9  1  0.549760  0.746858  0.245805  1.0
  O  O10  1  0.951294  0.746858  0.549760  1.0
