# generated using pymatgen
data_CaC2
_symmetry_space_group_name_H-M   'P 1'
_cell_length_a   4.40723282
_cell_length_b   8.33512525
_cell_length_c   7.36783758
_cell_angle_alpha   27.87736313
_cell_angle_beta   53.26093415
_cell_angle_gamma   58.07868586
_symmetry_Int_Tables_number   1
_chemical_formula_structural   CaC2
_chemical_formula_sum   'Ca2 C4'
_cell_volume   101.41604001
_cell_formula_units_Z   2
loop_
 _symmetry_equiv_pos_site_id
 _symmetry_equiv_pos_as_xyz
  1  'x, y, z'
loop_
 _atom_site_type_symbol
 _atom_site_label
 _atom_site_symmetry_multiplicity
 _atom_site_fract_x
 _atom_site_fract_y
 _atom_site_fract_z
 _atom_site_occupancy
  Ca  Ca1  1  0.000000  0.000000  0.000000  1.0
  Ca  Ca2  1  0.000000  0.500000  0.000000  1.0
  C  C3  1  0.677812  0.000000  0.435532  1.0
  C  C4  1  0.451125  0.500000  0.435532  1.0
  C  C5  1  0.548875  0.500000  0.564468  1.0
  C  C6  1  0.322188  0.000000  0.564468  1.0
