# generated using pymatgen
data_Li2MnFeO4
_symmetry_space_group_name_H-M   'P 1'
_cell_length_a   5.22875850
_cell_length_b   5.22875787
_cell_length_c   5.22875840
_cell_angle_alpha   133.21610740
_cell_angle_beta   133.21611467
_cell_angle_gamma   68.31496653
_symmetry_Int_Tables_number   1
_chemical_formula_structural   Li2MnFeO4
_chemical_formula_sum   'Li2 Mn1 Fe1 O4'
_cell_volume   74.58381726
_cell_formula_units_Z   1
loop_
 _symmetry_equiv_pos_site_id
 _symmetry_equiv_pos_as_xyz
  1  'x, y, z'
loop_
 _atom_site_type_symbol
 _atom_site_label
 _atom_site_symmetry_multiplicity
 _atom_site_fract_x
 _atom_site_fract_y
 _atom_site_fract_z
 _atom_site_occupancy
  Li  Li1  1  0.250000  0.750000  0.500000  1.0
  Li  Li2  1  0.500000  0.500000  0.000000  1.0
  Mn  Mn3  1  0.000000  0.000000  0.000000  1.0
  Fe  Fe4  1  0.750000  0.250000  0.500000  1.0
  O  O5  1  0.516802  0.016802  0.500000  1.0
  O  O6  1  0.231971  0.231971  0.000000  1.0
  O  O7  1  0.983198  0.483198  0.500000  1.0
  O  O8  1  0.768029  0.768029  0.000000  1.0
