# generated using pymatgen
data_NaMnO2
_symmetry_space_group_name_H-M   'P 1'
_cell_length_a   2.89637602
_cell_length_b   3.19513431
_cell_length_c   5.68646597
_cell_angle_alpha   81.80347572
_cell_angle_beta   90.00000000
_cell_angle_gamma   116.95225946
_symmetry_Int_Tables_number   1
_chemical_formula_structural   NaMnO2
_chemical_formula_sum   'Na1 Mn1 O2'
_cell_volume   46.30463107
_cell_formula_units_Z   1
loop_
 _symmetry_equiv_pos_site_id
 _symmetry_equiv_pos_as_xyz
  1  'x, y, z'
loop_
 _atom_site_type_symbol
 _atom_site_label
 _atom_site_symmetry_multiplicity
 _atom_site_fract_x
 _atom_site_fract_y
 _atom_site_fract_z
 _atom_site_occupancy
  Na  Na1  1  0.999931  0.000000  0.500000  1.0
  Mn  Mn2  1  0.999967  0.000000  0.000000  1.0
  O  O3  1  0.352765  0.705529  0.205042  1.0
  O  O4  1  0.647236  0.294471  0.794958  1.0
