# generated using pymatgen
data_Na2NiO2
_symmetry_space_group_name_H-M   'P 1'
_cell_length_a   4.36652539
_cell_length_b   4.36652539
_cell_length_c   5.90749549
_cell_angle_alpha   68.31059059
_cell_angle_beta   68.31059059
_cell_angle_gamma   90.00000000
_symmetry_Int_Tables_number   1
_chemical_formula_structural   Na2NiO2
_chemical_formula_sum   'Na2 Ni1 O2'
_cell_volume   96.02656409
_cell_formula_units_Z   1
loop_
 _symmetry_equiv_pos_site_id
 _symmetry_equiv_pos_as_xyz
  1  'x, y, z'
loop_
 _atom_site_type_symbol
 _atom_site_label
 _atom_site_symmetry_multiplicity
 _atom_site_fract_x
 _atom_site_fract_y
 _atom_site_fract_z
 _atom_site_occupancy
  Na  Na1  1  0.750000  0.250000  0.500000  1.0
  Na  Na2  1  0.250000  0.750000  0.500000  1.0
  Ni  Ni3  1  0.500000  0.500000  0.000000  1.0
  O  O4  1  0.329197  0.329197  0.341606  1.0
  O  O5  1  0.670803  0.670803  0.658394  1.0
