# generated using pymatgen
data_LiMnO2
_symmetry_space_group_name_H-M   'P 1'
_cell_length_a   2.87175447
_cell_length_b   3.09715570
_cell_length_c   5.09858209
_cell_angle_alpha   101.83501899
_cell_angle_beta   106.35708550
_cell_angle_gamma   62.37959752
_symmetry_Int_Tables_number   1
_chemical_formula_structural   LiMnO2
_chemical_formula_sum   'Li1 Mn1 O2'
_cell_volume   38.40550664
_cell_formula_units_Z   1
loop_
 _symmetry_equiv_pos_site_id
 _symmetry_equiv_pos_as_xyz
  1  'x, y, z'
loop_
 _atom_site_type_symbol
 _atom_site_label
 _atom_site_symmetry_multiplicity
 _atom_site_fract_x
 _atom_site_fract_y
 _atom_site_fract_z
 _atom_site_occupancy
  Li  Li1  1  0.500000  0.500000  0.500000  1.0
  Mn  Mn2  1  0.000000  0.000000  0.000000  1.0
  O  O3  1  0.728169  0.775147  0.231487  1.0
  O  O4  1  0.271831  0.224853  0.768513  1.0
