# generated using pymatgen
data_Li3FeO4
_symmetry_space_group_name_H-M   'P 1'
_cell_length_a   5.03878403
_cell_length_b   10.25109730
_cell_length_c   9.81999797
_cell_angle_alpha   16.38407143
_cell_angle_beta   29.31266171
_cell_angle_gamma   33.15635730
_symmetry_Int_Tables_number   1
_chemical_formula_structural   Li3FeO4
_chemical_formula_sum   'Li3 Fe1 O4'
_cell_volume   70.04652400
_cell_formula_units_Z   1
loop_
 _symmetry_equiv_pos_site_id
 _symmetry_equiv_pos_as_xyz
  1  'x, y, z'
loop_
 _atom_site_type_symbol
 _atom_site_label
 _atom_site_symmetry_multiplicity
 _atom_site_fract_x
 _atom_site_fract_y
 _atom_site_fract_z
 _atom_site_occupancy
  Li  Li1  1  0.006552  0.994638  0.001961  1.0
  Li  Li2  1  0.986727  0.493137  0.010607  1.0
  Li  Li3  1  0.502009  0.996928  0.499620  1.0
  Fe  Fe4  1  0.504513  0.492353  0.506031  1.0
  O  O5  1  0.273762  0.990136  0.238103  1.0
  O  O6  1  0.191714  0.488996  0.279365  1.0
  O  O7  1  0.736394  0.993649  0.773299  1.0
  O  O8  1  0.820597  0.497388  0.727929  1.0
