# generated using pymatgen
data_Li6SbS2
_symmetry_space_group_name_H-M   'P 1'
_cell_length_a   4.02694194
_cell_length_b   10.11885768
_cell_length_c   19.41130727
_cell_angle_alpha   16.41412358
_cell_angle_beta   89.99549822
_cell_angle_gamma   78.51688231
_symmetry_Int_Tables_number   1
_chemical_formula_structural   Li6SbS2
_chemical_formula_sum   'Li6 Sb1 S2'
_cell_volume   158.68376732
_cell_formula_units_Z   1
loop_
 _symmetry_equiv_pos_site_id
 _symmetry_equiv_pos_as_xyz
  1  'x, y, z'
loop_
 _atom_site_type_symbol
 _atom_site_label
 _atom_site_symmetry_multiplicity
 _atom_site_fract_x
 _atom_site_fract_y
 _atom_site_fract_z
 _atom_site_occupancy
  Li  Li1  1  0.495881  0.002399  0.101093  1.0
  Li  Li2  1  0.496327  0.003446  0.600028  1.0
  Li  Li3  1  0.498896  0.996194  0.899509  1.0
  Li  Li4  1  0.499827  0.999649  0.250100  1.0
  Li  Li5  1  0.500627  0.998457  0.750775  1.0
  Li  Li6  1  0.500655  0.994603  0.400798  1.0
  Sb  Sb7  1  0.997578  0.998928  0.000547  1.0
  S  S8  1  0.998544  0.000660  0.675532  1.0
  S  S9  1  0.999994  0.997643  0.325172  1.0
