# generated using pymatgen
data_Li3FeO4
_symmetry_space_group_name_H-M   'P 1'
_cell_length_a   5.17735255
_cell_length_b   5.17735276
_cell_length_c   5.17735180
_cell_angle_alpha   134.10639155
_cell_angle_beta   134.10639336
_cell_angle_gamma   66.92188008
_symmetry_Int_Tables_number   1
_chemical_formula_structural   Li3FeO4
_chemical_formula_sum   'Li3 Fe1 O4'
_cell_volume   70.39459008
_cell_formula_units_Z   1
loop_
 _symmetry_equiv_pos_site_id
 _symmetry_equiv_pos_as_xyz
  1  'x, y, z'
loop_
 _atom_site_type_symbol
 _atom_site_label
 _atom_site_symmetry_multiplicity
 _atom_site_fract_x
 _atom_site_fract_y
 _atom_site_fract_z
 _atom_site_occupancy
  Li  Li1  1  0.250000  0.750000  0.500000  1.0
  Li  Li2  1  0.750000  0.250000  0.500000  1.0
  Li  Li3  1  0.500000  0.500000  0.000000  1.0
  Fe  Fe4  1  0.000000  0.000000  0.000000  1.0
  O  O5  1  0.499238  0.999238  0.500000  1.0
  O  O6  1  0.212415  0.212415  0.000000  1.0
  O  O7  1  0.000762  0.500762  0.500000  1.0
  O  O8  1  0.787585  0.787585  0.000000  1.0
