# generated using pymatgen
data_LiVO2
_symmetry_space_group_name_H-M   'P 1'
_cell_length_a   4.09956378
_cell_length_b   5.27857785
_cell_length_c   8.78320520
_cell_angle_alpha   33.75885517
_cell_angle_beta   89.89513156
_cell_angle_gamma   112.73357073
_symmetry_Int_Tables_number   1
_chemical_formula_structural   LiVO2
_chemical_formula_sum   'Li2 V2 O4'
_cell_volume   75.61738061
_cell_formula_units_Z   2
loop_
 _symmetry_equiv_pos_site_id
 _symmetry_equiv_pos_as_xyz
  1  'x, y, z'
loop_
 _atom_site_type_symbol
 _atom_site_label
 _atom_site_symmetry_multiplicity
 _atom_site_fract_x
 _atom_site_fract_y
 _atom_site_fract_z
 _atom_site_occupancy
  Li  Li1  1  0.506725  0.509752  0.868743  1.0
  Li  Li2  1  0.001344  0.510801  0.620360  1.0
  V  V3  1  0.505653  0.508296  0.373765  1.0
  V  V4  1  0.002445  0.512066  0.117314  1.0
  O  O5  1  0.004205  0.507312  0.891542  1.0
  O  O6  1  0.003618  0.506304  0.355665  1.0
  O  O7  1  0.503651  0.512586  0.599974  1.0
  O  O8  1  0.504146  0.513439  0.135864  1.0
