# generated using pymatgen
data_Al2NiO4
_symmetry_space_group_name_H-M   'P 1'
_cell_length_a   5.75096512
_cell_length_b   5.77007924
_cell_length_c   5.76295356
_cell_angle_alpha   60.51161146
_cell_angle_beta   60.50053742
_cell_angle_gamma   60.16818929
_symmetry_Int_Tables_number   1
_chemical_formula_structural   Al2NiO4
_chemical_formula_sum   'Al4 Ni2 O8'
_cell_volume   136.42374271
_cell_formula_units_Z   2
loop_
 _symmetry_equiv_pos_site_id
 _symmetry_equiv_pos_as_xyz
  1  'x, y, z'
loop_
 _atom_site_type_symbol
 _atom_site_label
 _atom_site_symmetry_multiplicity
 _atom_site_fract_x
 _atom_site_fract_y
 _atom_site_fract_z
 _atom_site_occupancy
  Al  Al1  1  0.499705  0.001145  0.499821  1.0
  Al  Al2  1  0.999389  0.499939  0.500371  1.0
  Al  Al3  1  0.500179  0.499820  0.500046  1.0
  Al  Al4  1  0.500353  0.499825  0.999461  1.0
  Ni  Ni5  1  0.877142  0.872061  0.879441  1.0
  Ni  Ni6  1  0.127190  0.120726  0.123920  1.0
  O  O7  1  0.293815  0.738973  0.731162  1.0
  O  O8  1  0.708833  0.265332  0.262542  1.0
  O  O9  1  0.737254  0.291036  0.735231  1.0
  O  O10  1  0.264067  0.702642  0.266565  1.0
  O  O11  1  0.735390  0.737699  0.736243  1.0
  O  O12  1  0.731092  0.736389  0.296579  1.0
  O  O13  1  0.262738  0.268072  0.707079  1.0
  O  O14  1  0.262853  0.266342  0.261540  1.0
