# generated using pymatgen
data_Ni3Sb
_symmetry_space_group_name_H-M   'P 1'
_cell_length_a   3.72586546
_cell_length_b   3.72586895
_cell_length_c   3.72591219
_cell_angle_alpha   90.00012148
_cell_angle_beta   90.00003814
_cell_angle_gamma   90.00001446
_symmetry_Int_Tables_number   1
_chemical_formula_structural   Ni3Sb
_chemical_formula_sum   'Ni3 Sb1'
_cell_volume   51.72343505
_cell_formula_units_Z   1
loop_
 _symmetry_equiv_pos_site_id
 _symmetry_equiv_pos_as_xyz
  1  'x, y, z'
loop_
 _atom_site_type_symbol
 _atom_site_label
 _atom_site_symmetry_multiplicity
 _atom_site_fract_x
 _atom_site_fract_y
 _atom_site_fract_z
 _atom_site_occupancy
  Ni  Ni1  1  0.999999  0.499997  0.499997  1.0
  Ni  Ni2  1  0.499997  0.999999  0.499997  1.0
  Ni  Ni3  1  0.500000  0.500000  0.000002  1.0
  Sb  Sb4  1  0.000000  0.999999  0.000000  1.0
