# generated using pymatgen
data_NaNi3
_symmetry_space_group_name_H-M   'P 1'
_cell_length_a   3.70468386
_cell_length_b   3.70264473
_cell_length_c   3.70236112
_cell_angle_alpha   90.00001470
_cell_angle_beta   90.00002413
_cell_angle_gamma   90.00001470
_symmetry_Int_Tables_number   1
_chemical_formula_structural   NaNi3
_chemical_formula_sum   'Na1 Ni3'
_cell_volume   50.78576202
_cell_formula_units_Z   1
loop_
 _symmetry_equiv_pos_site_id
 _symmetry_equiv_pos_as_xyz
  1  'x, y, z'
loop_
 _atom_site_type_symbol
 _atom_site_label
 _atom_site_symmetry_multiplicity
 _atom_site_fract_x
 _atom_site_fract_y
 _atom_site_fract_z
 _atom_site_occupancy
  Na  Na1  1  0.000000  0.000000  0.000000  1.0
  Ni  Ni2  1  0.000000  0.500001  0.500001  1.0
  Ni  Ni3  1  0.500001  0.000000  0.500001  1.0
  Ni  Ni4  1  0.500001  0.500001  0.000000  1.0
