# generated using pymatgen
data_SiMo
_symmetry_space_group_name_H-M   'P 1'
_cell_length_a   3.13358479
_cell_length_b   3.13359230
_cell_length_c   3.52334140
_cell_angle_alpha   90.00000000
_cell_angle_beta   90.00000000
_cell_angle_gamma   119.99995246
_symmetry_Int_Tables_number   1
_chemical_formula_structural   SiMo
_chemical_formula_sum   'Si1 Mo1'
_cell_volume   29.96191093
_cell_formula_units_Z   1
loop_
 _symmetry_equiv_pos_site_id
 _symmetry_equiv_pos_as_xyz
  1  'x, y, z'
loop_
 _atom_site_type_symbol
 _atom_site_label
 _atom_site_symmetry_multiplicity
 _atom_site_fract_x
 _atom_site_fract_y
 _atom_site_fract_z
 _atom_site_occupancy
  Si  Si1  1  0.333333  0.666665  0.249999  1.0
  Mo  Mo2  1  0.666670  0.333333  0.749998  1.0
