# generated using pymatgen
data_VN
_symmetry_space_group_name_H-M   'P 1'
_cell_length_a   2.75429289
_cell_length_b   2.75436763
_cell_length_c   5.30968176
_cell_angle_alpha   90.00000000
_cell_angle_beta   90.00000000
_cell_angle_gamma   119.99910223
_symmetry_Int_Tables_number   1
_chemical_formula_structural   VN
_chemical_formula_sum   'V2 N2'
_cell_volume   34.88470698
_cell_formula_units_Z   2
loop_
 _symmetry_equiv_pos_site_id
 _symmetry_equiv_pos_as_xyz
  1  'x, y, z'
loop_
 _atom_site_type_symbol
 _atom_site_label
 _atom_site_symmetry_multiplicity
 _atom_site_fract_x
 _atom_site_fract_y
 _atom_site_fract_z
 _atom_site_occupancy
  V  V1  1  0.000000  0.000000  0.500000  1.0
  V  V2  1  0.000000  0.000000  0.000000  1.0
  N  N3  1  0.333310  0.666619  0.250000  1.0
  N  N4  1  0.666690  0.333381  0.750000  1.0
