# generated using pymatgen
data_ZnO
_symmetry_space_group_name_H-M   'P 1'
_cell_length_a   3.20518203
_cell_length_b   3.20525394
_cell_length_c   5.51692668
_cell_angle_alpha   90.00000000
_cell_angle_beta   90.00000000
_cell_angle_gamma   119.99925799
_symmetry_Int_Tables_number   1
_chemical_formula_structural   ZnO
_chemical_formula_sum   'Zn2 O2'
_cell_volume   49.08471040
_cell_formula_units_Z   2
loop_
 _symmetry_equiv_pos_site_id
 _symmetry_equiv_pos_as_xyz
  1  'x, y, z'
loop_
 _atom_site_type_symbol
 _atom_site_label
 _atom_site_symmetry_multiplicity
 _atom_site_fract_x
 _atom_site_fract_y
 _atom_site_fract_z
 _atom_site_occupancy
  Zn  Zn1  1  0.999979  0.999957  0.501143  1.0
  Zn  Zn2  1  0.000021  0.000043  0.001143  1.0
  O  O3  1  0.666680  0.333361  0.886057  1.0
  O  O4  1  0.333320  0.666639  0.386057  1.0
