# generated using pymatgen
data_ZrN
_symmetry_space_group_name_H-M   'P 1'
_cell_length_a   3.21661196
_cell_length_b   3.21664726
_cell_length_c   5.70940018
_cell_angle_alpha   90.00000000
_cell_angle_beta   90.00000000
_cell_angle_gamma   119.99963700
_symmetry_Int_Tables_number   1
_chemical_formula_structural   ZrN
_chemical_formula_sum   'Zr2 N2'
_cell_volume   51.15932615
_cell_formula_units_Z   2
loop_
 _symmetry_equiv_pos_site_id
 _symmetry_equiv_pos_as_xyz
  1  'x, y, z'
loop_
 _atom_site_type_symbol
 _atom_site_label
 _atom_site_symmetry_multiplicity
 _atom_site_fract_x
 _atom_site_fract_y
 _atom_site_fract_z
 _atom_site_occupancy
  Zr  Zr1  1  0.000000  0.000000  0.500000  1.0
  Zr  Zr2  1  0.000000  0.000000  0.000000  1.0
  N  N3  1  0.333320  0.666641  0.250000  1.0
  N  N4  1  0.666680  0.333359  0.750000  1.0
