# generated using pymatgen
data_Be3N2
_symmetry_space_group_name_H-M   'P 1'
_cell_length_a   2.81771067
_cell_length_b   2.81784389
_cell_length_c   4.66702242
_cell_angle_alpha   90.00000007
_cell_angle_beta   90.00202174
_cell_angle_gamma   120.00155662
_symmetry_Int_Tables_number   1
_chemical_formula_structural   Be3N2
_chemical_formula_sum   'Be3 N2'
_cell_volume   32.09054051
_cell_formula_units_Z   1
loop_
 _symmetry_equiv_pos_site_id
 _symmetry_equiv_pos_as_xyz
  1  'x, y, z'
loop_
 _atom_site_type_symbol
 _atom_site_label
 _atom_site_symmetry_multiplicity
 _atom_site_fract_x
 _atom_site_fract_y
 _atom_site_fract_z
 _atom_site_occupancy
  Be  Be1  1  0.000000  0.000000  0.000000  1.0
  Be  Be2  1  0.666649  0.333325  0.649633  1.0
  Be  Be3  1  0.333351  0.666675  0.350367  1.0
  N  N4  1  0.333351  0.666676  0.747058  1.0
  N  N5  1  0.666649  0.333324  0.252942  1.0
