# generated using pymatgen
data_Y2Al3Si2
_symmetry_space_group_name_H-M   'P 1'
_cell_length_a   4.03934545
_cell_length_b   5.49538427
_cell_length_c   6.64007390
_cell_angle_alpha   100.29739300
_cell_angle_beta   90.00000000
_cell_angle_gamma   111.56284666
_symmetry_Int_Tables_number   1
_chemical_formula_structural   Y2Al3Si2
_chemical_formula_sum   'Y2 Al3 Si2'
_cell_volume   134.52333130
_cell_formula_units_Z   1
loop_
 _symmetry_equiv_pos_site_id
 _symmetry_equiv_pos_as_xyz
  1  'x, y, z'
loop_
 _atom_site_type_symbol
 _atom_site_label
 _atom_site_symmetry_multiplicity
 _atom_site_fract_x
 _atom_site_fract_y
 _atom_site_fract_z
 _atom_site_occupancy
  Y  Y1  1  0.379910  0.759820  0.677564  1.0
  Y  Y2  1  0.620090  0.240180  0.322436  1.0
  Al  Al3  1  0.694416  0.388833  0.866607  1.0
  Al  Al4  1  0.000000  0.000000  0.000000  1.0
  Al  Al5  1  0.305584  0.611167  0.133393  1.0
  Si  Si6  1  0.907310  0.814620  0.359446  1.0
  Si  Si7  1  0.092690  0.185380  0.640554  1.0
