# generated using pymatgen
data_Fe3Co
_symmetry_space_group_name_H-M   'P 1'
_cell_length_a   2.84191848
_cell_length_b   4.03284021
_cell_length_c   4.03288546
_cell_angle_alpha   89.99998679
_cell_angle_beta   90.00004523
_cell_angle_gamma   90.00003525
_symmetry_Int_Tables_number   1
_chemical_formula_structural   Fe3Co
_chemical_formula_sum   'Fe3 Co1'
_cell_volume   46.22091284
_cell_formula_units_Z   1
loop_
 _symmetry_equiv_pos_site_id
 _symmetry_equiv_pos_as_xyz
  1  'x, y, z'
loop_
 _atom_site_type_symbol
 _atom_site_label
 _atom_site_symmetry_multiplicity
 _atom_site_fract_x
 _atom_site_fract_y
 _atom_site_fract_z
 _atom_site_occupancy
  Fe  Fe1  1  0.000000  0.500000  0.500001  1.0
  Fe  Fe2  1  0.500001  0.500000  0.999999  1.0
  Fe  Fe3  1  0.499999  0.000000  0.500000  1.0
  Co  Co4  1  0.000001  0.000000  0.000000  1.0
