# generated using pymatgen
data_Ba3Zr2S7
_symmetry_space_group_name_H-M   'P 1'
_cell_length_a   5.04089258
_cell_length_b   5.04089258
_cell_length_c   13.40700315
_cell_angle_alpha   100.83578355
_cell_angle_beta   100.83578351
_cell_angle_gamma   89.99999996
_symmetry_Int_Tables_number   1
_chemical_formula_structural   Ba3Zr2S7
_chemical_formula_sum   'Ba3 Zr2 S7'
_cell_volume   328.41901265
_cell_formula_units_Z   1
loop_
 _symmetry_equiv_pos_site_id
 _symmetry_equiv_pos_as_xyz
  1  'x, y, z'
loop_
 _atom_site_type_symbol
 _atom_site_label
 _atom_site_symmetry_multiplicity
 _atom_site_fract_x
 _atom_site_fract_y
 _atom_site_fract_z
 _atom_site_occupancy
  Ba  Ba1  1  0.819077  0.819077  0.638155  1.0
  Ba  Ba2  1  0.180923  0.180923  0.361845  1.0
  Ba  Ba3  1  0.000000  0.000000  0.000000  1.0
  Zr  Zr4  1  0.600325  0.600325  0.200649  1.0
  Zr  Zr5  1  0.399676  0.399676  0.799351  1.0
  S  S6  1  0.500000  0.500000  0.000000  1.0
  S  S7  1  0.698221  0.698221  0.396442  1.0
  S  S8  1  0.301779  0.301779  0.603558  1.0
  S  S9  1  0.596246  0.096246  0.192491  1.0
  S  S10  1  0.096246  0.596246  0.192491  1.0
  S  S11  1  0.903754  0.403754  0.807509  1.0
  S  S12  1  0.403754  0.903754  0.807509  1.0
