# generated using pymatgen
data_Sr3(AlSn)2
_symmetry_space_group_name_H-M   'P 1'
_cell_length_a   4.50822907
_cell_length_b   4.98257769
_cell_length_c   10.57428005
_cell_angle_alpha   103.61620515
_cell_angle_beta   102.30816104
_cell_angle_gamma   90.00000002
_symmetry_Int_Tables_number   1
_chemical_formula_structural   Sr3(AlSn)2
_chemical_formula_sum   'Sr3 Al2 Sn2'
_cell_volume   225.22880675
_cell_formula_units_Z   1
loop_
 _symmetry_equiv_pos_site_id
 _symmetry_equiv_pos_as_xyz
  1  'x, y, z'
loop_
 _atom_site_type_symbol
 _atom_site_label
 _atom_site_symmetry_multiplicity
 _atom_site_fract_x
 _atom_site_fract_y
 _atom_site_fract_z
 _atom_site_occupancy
  Sr  Sr1  1  0.182399  0.182290  0.364798  1.0
  Sr  Sr2  1  0.817601  0.817710  0.635202  1.0
  Sr  Sr3  1  0.500000  0.000000  0.000000  1.0
  Al  Al4  1  0.936689  0.436636  0.873379  1.0
  Al  Al5  1  0.063311  0.563364  0.126621  1.0
  Sn  Sn6  1  0.358438  0.358739  0.716876  1.0
  Sn  Sn7  1  0.641562  0.641261  0.283124  1.0
