# generated using pymatgen
data_Ba3(AlSn)2
_symmetry_space_group_name_H-M   'P 1'
_cell_length_a   4.62913006
_cell_length_b   5.27966050
_cell_length_c   10.99932650
_cell_angle_alpha   103.88062306
_cell_angle_beta   102.14742866
_cell_angle_gamma   89.99999998
_symmetry_Int_Tables_number   1
_chemical_formula_structural   Ba3(AlSn)2
_chemical_formula_sum   'Ba3 Al2 Sn2'
_cell_volume   254.77118982
_cell_formula_units_Z   1
loop_
 _symmetry_equiv_pos_site_id
 _symmetry_equiv_pos_as_xyz
  1  'x, y, z'
loop_
 _atom_site_type_symbol
 _atom_site_label
 _atom_site_symmetry_multiplicity
 _atom_site_fract_x
 _atom_site_fract_y
 _atom_site_fract_z
 _atom_site_occupancy
  Ba  Ba1  1  0.500000  0.000000  0.000000  1.0
  Ba  Ba2  1  0.818148  0.818208  0.636295  1.0
  Ba  Ba3  1  0.181852  0.181792  0.363705  1.0
  Al  Al4  1  0.938466  0.438615  0.876932  1.0
  Al  Al5  1  0.061534  0.561385  0.123068  1.0
  Sn  Sn6  1  0.363930  0.363727  0.727860  1.0
  Sn  Sn7  1  0.636070  0.636273  0.272140  1.0
