# generated using pymatgen
data_Ag3Pd
_symmetry_space_group_name_H-M   'P 1'
_cell_length_a   5.01851784
_cell_length_b   5.01851784
_cell_length_c   5.01851784
_cell_angle_alpha   131.60023476
_cell_angle_beta   131.60023476
_cell_angle_gamma   70.86115018
_symmetry_Int_Tables_number   1
_chemical_formula_structural   Ag3Pd
_chemical_formula_sum   'Ag3 Pd1'
_cell_volume   69.22261529
_cell_formula_units_Z   1
loop_
 _symmetry_equiv_pos_site_id
 _symmetry_equiv_pos_as_xyz
  1  'x, y, z'
loop_
 _atom_site_type_symbol
 _atom_site_label
 _atom_site_symmetry_multiplicity
 _atom_site_fract_x
 _atom_site_fract_y
 _atom_site_fract_z
 _atom_site_occupancy
  Ag  Ag1  1  0.749998  0.250000  0.499998  1.0
  Ag  Ag2  1  0.250000  0.749998  0.499998  1.0
  Ag  Ag3  1  0.500001  0.500001  0.000000  1.0
  Pd  Pd4  1  0.000000  0.000000  0.000000  1.0
