# generated using pymatgen
data_AlFe2
_symmetry_space_group_name_H-M   'P 1'
_cell_length_a   2.55220197
_cell_length_b   4.13492238
_cell_length_c   4.13492238
_cell_angle_alpha   120.00000380
_cell_angle_beta   90.00000000
_cell_angle_gamma   90.00000000
_symmetry_Int_Tables_number   1
_chemical_formula_structural   AlFe2
_chemical_formula_sum   'Al1 Fe2'
_cell_volume   37.79030330
_cell_formula_units_Z   1
loop_
 _symmetry_equiv_pos_site_id
 _symmetry_equiv_pos_as_xyz
  1  'x, y, z'
loop_
 _atom_site_type_symbol
 _atom_site_label
 _atom_site_symmetry_multiplicity
 _atom_site_fract_x
 _atom_site_fract_y
 _atom_site_fract_z
 _atom_site_occupancy
  Al  Al1  1  0.000000  0.000000  0.000000  1.0
  Fe  Fe2  1  0.500000  0.333333  0.666667  1.0
  Fe  Fe3  1  0.500000  0.666667  0.333333  1.0
