# generated using pymatgen
data_K2AgSb
_symmetry_space_group_name_H-M   'P 1'
_cell_length_a   6.36017281
_cell_length_b   6.75906660
_cell_length_c   6.75906660
_cell_angle_alpha   103.41930240
_cell_angle_beta   90.00000000
_cell_angle_gamma   90.00000000
_symmetry_Int_Tables_number   1
_chemical_formula_structural   K2AgSb
_chemical_formula_sum   'K4 Ag2 Sb2'
_cell_volume   282.63131449
_cell_formula_units_Z   2
loop_
 _symmetry_equiv_pos_site_id
 _symmetry_equiv_pos_as_xyz
  1  'x, y, z'
loop_
 _atom_site_type_symbol
 _atom_site_label
 _atom_site_symmetry_multiplicity
 _atom_site_fract_x
 _atom_site_fract_y
 _atom_site_fract_z
 _atom_site_occupancy
  K  K1  1  0.250275  0.678314  0.023269  1.0
  K  K2  1  0.750275  0.321686  0.976731  1.0
  K  K3  1  0.249725  0.023269  0.678314  1.0
  K  K4  1  0.749725  0.976731  0.321686  1.0
  Ag  Ag5  1  0.000000  0.500185  0.499815  1.0
  Ag  Ag6  1  0.500000  0.499815  0.500185  1.0
  Sb  Sb7  1  0.250000  0.234996  0.234996  1.0
  Sb  Sb8  1  0.750000  0.765004  0.765004  1.0
