# generated using pymatgen
data_AlCuO3
_symmetry_space_group_name_H-M   'P 1'
_cell_length_a   3.68559541
_cell_length_b   3.70592441
_cell_length_c   3.70592437
_cell_angle_alpha   89.99589061
_cell_angle_beta   90.00000000
_cell_angle_gamma   90.00000000
_symmetry_Int_Tables_number   1
_chemical_formula_structural   AlCuO3
_chemical_formula_sum   'Al1 Cu1 O3'
_cell_volume   50.61750869
_cell_formula_units_Z   1
loop_
 _symmetry_equiv_pos_site_id
 _symmetry_equiv_pos_as_xyz
  1  'x, y, z'
loop_
 _atom_site_type_symbol
 _atom_site_label
 _atom_site_symmetry_multiplicity
 _atom_site_fract_x
 _atom_site_fract_y
 _atom_site_fract_z
 _atom_site_occupancy
  Al  Al1  1  0.000000  0.000000  0.000000  1.0
  Cu  Cu2  1  0.500001  0.500000  0.499999  1.0
  O  O3  1  0.500001  0.499999  0.000001  1.0
  O  O4  1  0.500001  0.000001  0.500001  1.0
  O  O5  1  0.000000  0.500000  0.499999  1.0
