# generated using pymatgen
data_RbNpO3
_symmetry_space_group_name_H-M   'P 1'
_cell_length_a   4.33146071
_cell_length_b   4.33146695
_cell_length_c   4.33144226
_cell_angle_alpha   89.99910236
_cell_angle_beta   90.00049286
_cell_angle_gamma   89.99864574
_symmetry_Int_Tables_number   1
_chemical_formula_structural   RbNpO3
_chemical_formula_sum   'Rb1 Np1 O3'
_cell_volume   81.26469572
_cell_formula_units_Z   1
loop_
 _symmetry_equiv_pos_site_id
 _symmetry_equiv_pos_as_xyz
  1  'x, y, z'
loop_
 _atom_site_type_symbol
 _atom_site_label
 _atom_site_symmetry_multiplicity
 _atom_site_fract_x
 _atom_site_fract_y
 _atom_site_fract_z
 _atom_site_occupancy
  Rb  Rb1  1  0.000000  0.000000  0.000000  1.0
  Np  Np2  1  0.499999  0.500000  0.500001  1.0
  O  O3  1  0.500000  0.500000  0.000000  1.0
  O  O4  1  0.500000  0.000000  0.500000  1.0
  O  O5  1  0.000000  0.500000  0.500000  1.0
