# generated using pymatgen
data_YSnO3
_symmetry_space_group_name_H-M   'P 1'
_cell_length_a   4.14187210
_cell_length_b   4.14185359
_cell_length_c   4.14185354
_cell_angle_alpha   89.94912913
_cell_angle_beta   90.00000000
_cell_angle_gamma   90.00000000
_symmetry_Int_Tables_number   1
_chemical_formula_structural   YSnO3
_chemical_formula_sum   'Y1 Sn1 O3'
_cell_volume   71.05358473
_cell_formula_units_Z   1
loop_
 _symmetry_equiv_pos_site_id
 _symmetry_equiv_pos_as_xyz
  1  'x, y, z'
loop_
 _atom_site_type_symbol
 _atom_site_label
 _atom_site_symmetry_multiplicity
 _atom_site_fract_x
 _atom_site_fract_y
 _atom_site_fract_z
 _atom_site_occupancy
  Y  Y1  1  0.000000  0.000000  0.000000  1.0
  Sn  Sn2  1  0.500001  0.500000  0.499999  1.0
  O  O3  1  0.500001  0.499999  0.000001  1.0
  O  O4  1  0.500001  0.000001  0.500001  1.0
  O  O5  1  0.000000  0.500000  0.499999  1.0
