# generated using pymatgen
data_RbMnO3
_symmetry_space_group_name_H-M   'P 1'
_cell_length_a   4.03875957
_cell_length_b   4.04089876
_cell_length_c   4.03813530
_cell_angle_alpha   89.99949605
_cell_angle_beta   89.99942895
_cell_angle_gamma   90.00032918
_symmetry_Int_Tables_number   1
_chemical_formula_structural   RbMnO3
_chemical_formula_sum   'Rb1 Mn1 O3'
_cell_volume   65.90325058
_cell_formula_units_Z   1
loop_
 _symmetry_equiv_pos_site_id
 _symmetry_equiv_pos_as_xyz
  1  'x, y, z'
loop_
 _atom_site_type_symbol
 _atom_site_label
 _atom_site_symmetry_multiplicity
 _atom_site_fract_x
 _atom_site_fract_y
 _atom_site_fract_z
 _atom_site_occupancy
  Rb  Rb1  1  0.000009  0.000015  0.999996  1.0
  Mn  Mn2  1  0.499998  0.500004  0.500000  1.0
  O  O3  1  0.499999  0.499998  0.000000  1.0
  O  O4  1  0.499999  0.999990  0.500005  1.0
  O  O5  1  0.999998  0.499997  0.500003  1.0
