# generated using pymatgen
data_RbAuO3
_symmetry_space_group_name_H-M   'P 1'
_cell_length_a   4.21612201
_cell_length_b   4.21772358
_cell_length_c   4.21811479
_cell_angle_alpha   90.00001019
_cell_angle_beta   89.99994103
_cell_angle_gamma   89.99989008
_symmetry_Int_Tables_number   1
_chemical_formula_structural   RbAuO3
_chemical_formula_sum   'Rb1 Au1 O3'
_cell_volume   75.00836143
_cell_formula_units_Z   1
loop_
 _symmetry_equiv_pos_site_id
 _symmetry_equiv_pos_as_xyz
  1  'x, y, z'
loop_
 _atom_site_type_symbol
 _atom_site_label
 _atom_site_symmetry_multiplicity
 _atom_site_fract_x
 _atom_site_fract_y
 _atom_site_fract_z
 _atom_site_occupancy
  Rb  Rb1  1  0.000000  0.000000  0.000000  1.0
  Au  Au2  1  0.500000  0.499999  0.499999  1.0
  O  O3  1  0.499999  0.500000  0.999999  1.0
  O  O4  1  0.499999  0.999999  0.499999  1.0
  O  O5  1  0.999999  0.499999  0.499999  1.0
