# generated using pymatgen
data_PuPtO3
_symmetry_space_group_name_H-M   'P 1'
_cell_length_a   4.05455552
_cell_length_b   4.05455841
_cell_length_c   4.05453220
_cell_angle_alpha   89.99877639
_cell_angle_beta   90.00230296
_cell_angle_gamma   89.99831162
_symmetry_Int_Tables_number   1
_chemical_formula_structural   PuPtO3
_chemical_formula_sum   'Pu1 Pt1 O3'
_cell_volume   66.65420704
_cell_formula_units_Z   1
loop_
 _symmetry_equiv_pos_site_id
 _symmetry_equiv_pos_as_xyz
  1  'x, y, z'
loop_
 _atom_site_type_symbol
 _atom_site_label
 _atom_site_symmetry_multiplicity
 _atom_site_fract_x
 _atom_site_fract_y
 _atom_site_fract_z
 _atom_site_occupancy
  Pu  Pu1  1  0.000003  0.000002  0.000002  1.0
  Pt  Pt2  1  0.499998  0.499999  0.499998  1.0
  O  O3  1  0.499995  0.499993  0.999999  1.0
  O  O4  1  0.499996  0.999998  0.499995  1.0
  O  O5  1  0.999996  0.499996  0.499994  1.0
