# generated using pymatgen
data_ZnCu2O3
_symmetry_space_group_name_H-M   'P 1'
_cell_length_a   3.90832120
_cell_length_b   9.69604166
_cell_length_c   3.46626829
_cell_angle_alpha   90.00000000
_cell_angle_beta   90.00000000
_cell_angle_gamma   90.00000000
_symmetry_Int_Tables_number   1
_chemical_formula_structural   ZnCu2O3
_chemical_formula_sum   'Zn2 Cu4 O6'
_cell_volume   131.35508669
_cell_formula_units_Z   2
loop_
 _symmetry_equiv_pos_site_id
 _symmetry_equiv_pos_as_xyz
  1  'x, y, z'
loop_
 _atom_site_type_symbol
 _atom_site_label
 _atom_site_symmetry_multiplicity
 _atom_site_fract_x
 _atom_site_fract_y
 _atom_site_fract_z
 _atom_site_occupancy
  Zn  Zn1  1  0.250000  0.250000  0.304398  1.0
  Zn  Zn2  1  0.750000  0.750000  0.695602  1.0
  Cu  Cu3  1  0.250000  0.585995  0.184299  1.0
  Cu  Cu4  1  0.250000  0.914005  0.184299  1.0
  Cu  Cu5  1  0.750000  0.085995  0.815701  1.0
  Cu  Cu6  1  0.750000  0.414005  0.815701  1.0
  O  O7  1  0.250000  0.750000  0.498647  1.0
  O  O8  1  0.250000  0.088257  0.902313  1.0
  O  O9  1  0.250000  0.411743  0.902313  1.0
  O  O10  1  0.750000  0.250000  0.501353  1.0
  O  O11  1  0.750000  0.588257  0.097687  1.0
  O  O12  1  0.750000  0.911743  0.097687  1.0
