# generated using pymatgen
data_Ba3Hf2O7
_symmetry_space_group_name_H-M   'P 1'
_cell_length_a   4.20171308
_cell_length_b   11.39552420
_cell_length_c   4.20171308
_cell_angle_alpha   79.37629278
_cell_angle_beta   90.00000000
_cell_angle_gamma   100.62370722
_symmetry_Int_Tables_number   1
_chemical_formula_structural   Ba3Hf2O7
_chemical_formula_sum   'Ba3 Hf2 O7'
_cell_volume   194.22301569
_cell_formula_units_Z   1
loop_
 _symmetry_equiv_pos_site_id
 _symmetry_equiv_pos_as_xyz
  1  'x, y, z'
loop_
 _atom_site_type_symbol
 _atom_site_label
 _atom_site_symmetry_multiplicity
 _atom_site_fract_x
 _atom_site_fract_y
 _atom_site_fract_z
 _atom_site_occupancy
  Ba  Ba1  1  0.500000  0.000000  0.500000  1.0
  Ba  Ba2  1  0.685790  0.371578  0.314210  1.0
  Ba  Ba3  1  0.314210  0.628422  0.685790  1.0
  Hf  Hf4  1  0.903409  0.806817  0.096591  1.0
  Hf  Hf5  1  0.096591  0.193183  0.903409  1.0
  O  O6  1  0.000000  0.000000  0.000000  1.0
  O  O7  1  0.095633  0.191266  0.404367  1.0
  O  O8  1  0.404367  0.808734  0.095633  1.0
  O  O9  1  0.808478  0.616956  0.191522  1.0
  O  O10  1  0.191522  0.383044  0.808478  1.0
  O  O11  1  0.595633  0.191266  0.904367  1.0
  O  O12  1  0.904367  0.808734  0.595633  1.0
