# generated using pymatgen
data_NaCdO2
_symmetry_space_group_name_H-M   'P 1'
_cell_length_a   3.35773509
_cell_length_b   3.35773509
_cell_length_c   5.84956263
_cell_angle_alpha   73.24864422
_cell_angle_beta   106.75135578
_cell_angle_gamma   119.92890676
_symmetry_Int_Tables_number   1
_chemical_formula_structural   NaCdO2
_chemical_formula_sum   'Na1 Cd1 O2'
_cell_volume   53.89489244
_cell_formula_units_Z   1
loop_
 _symmetry_equiv_pos_site_id
 _symmetry_equiv_pos_as_xyz
  1  'x, y, z'
loop_
 _atom_site_type_symbol
 _atom_site_label
 _atom_site_symmetry_multiplicity
 _atom_site_fract_x
 _atom_site_fract_y
 _atom_site_fract_z
 _atom_site_occupancy
  Na  Na1  1  0.000000  0.000000  0.000000  1.0
  Cd  Cd2  1  0.500000  0.500000  0.500000  1.0
  O  O3  1  0.242399  0.757601  0.725454  1.0
  O  O4  1  0.757601  0.242399  0.274546  1.0
