# generated using pymatgen
data_ZrO2
_symmetry_space_group_name_H-M   'P 1'
_cell_length_a   3.48182176
_cell_length_b   10.41383531
_cell_length_c   3.88098548
_cell_angle_alpha   90.00000000
_cell_angle_beta   90.00000000
_cell_angle_gamma   90.00000000
_symmetry_Int_Tables_number   1
_chemical_formula_structural   ZrO2
_chemical_formula_sum   'Zr4 O8'
_cell_volume   140.72111198
_cell_formula_units_Z   4
loop_
 _symmetry_equiv_pos_site_id
 _symmetry_equiv_pos_as_xyz
  1  'x, y, z'
loop_
 _atom_site_type_symbol
 _atom_site_label
 _atom_site_symmetry_multiplicity
 _atom_site_fract_x
 _atom_site_fract_y
 _atom_site_fract_z
 _atom_site_occupancy
  Zr  Zr1  1  0.250000  0.118610  0.251933  1.0
  Zr  Zr2  1  0.250000  0.618610  0.248067  1.0
  Zr  Zr3  1  0.750000  0.881390  0.748067  1.0
  Zr  Zr4  1  0.750000  0.381390  0.751933  1.0
  O  O5  1  0.250000  0.786055  0.568823  1.0
  O  O6  1  0.250000  0.286055  0.931177  1.0
  O  O7  1  0.250000  0.525168  0.736604  1.0
  O  O8  1  0.250000  0.025168  0.763396  1.0
  O  O9  1  0.750000  0.474832  0.263396  1.0
  O  O10  1  0.750000  0.974832  0.236604  1.0
  O  O11  1  0.750000  0.213945  0.431177  1.0
  O  O12  1  0.750000  0.713945  0.068823  1.0
