# generated using pymatgen
data_CoAgO2
_symmetry_space_group_name_H-M   'P 1'
_cell_length_a   3.02950769
_cell_length_b   6.49316496
_cell_length_c   3.02950780
_cell_angle_alpha   103.49051699
_cell_angle_beta   119.99999269
_cell_angle_gamma   90.00000585
_symmetry_Int_Tables_number   1
_chemical_formula_structural   CoAgO2
_chemical_formula_sum   'Co1 Ag1 O2'
_cell_volume   49.70197359
_cell_formula_units_Z   1
loop_
 _symmetry_equiv_pos_site_id
 _symmetry_equiv_pos_as_xyz
  1  'x, y, z'
loop_
 _atom_site_type_symbol
 _atom_site_label
 _atom_site_symmetry_multiplicity
 _atom_site_fract_x
 _atom_site_fract_y
 _atom_site_fract_z
 _atom_site_occupancy
  Co  Co1  1  0.500000  0.500000  0.000000  1.0
  Ag  Ag2  1  0.000000  0.000000  0.000000  1.0
  O  O3  1  0.112006  0.336019  0.224012  1.0
  O  O4  1  0.887994  0.663981  0.775988  1.0
