# generated using pymatgen
data_U2SeN2
_symmetry_space_group_name_H-M   'P 1'
_cell_length_a   3.84083613
_cell_length_b   3.84083613
_cell_length_c   6.85611136
_cell_angle_alpha   90.00000000
_cell_angle_beta   90.00000000
_cell_angle_gamma   119.99999994
_symmetry_Int_Tables_number   1
_chemical_formula_structural   U2SeN2
_chemical_formula_sum   'U2 Se1 N2'
_cell_volume   87.59111435
_cell_formula_units_Z   1
loop_
 _symmetry_equiv_pos_site_id
 _symmetry_equiv_pos_as_xyz
  1  'x, y, z'
loop_
 _atom_site_type_symbol
 _atom_site_label
 _atom_site_symmetry_multiplicity
 _atom_site_fract_x
 _atom_site_fract_y
 _atom_site_fract_z
 _atom_site_occupancy
  U  U1  1  0.666667  0.333333  0.704611  1.0
  U  U2  1  0.333333  0.666667  0.295389  1.0
  Se  Se3  1  0.000000  0.000000  0.000000  1.0
  N  N4  1  0.333333  0.666667  0.626234  1.0
  N  N5  1  0.666667  0.333333  0.373766  1.0
