# generated using pymatgen
data_ErNi2B2C
_symmetry_space_group_name_H-M   'P 1'
_cell_length_a   3.51228898
_cell_length_b   3.51228898
_cell_length_c   5.77805134
_cell_angle_alpha   107.69402393
_cell_angle_beta   107.69402389
_cell_angle_gamma   90.00000005
_symmetry_Int_Tables_number   1
_chemical_formula_structural   ErNi2B2C
_chemical_formula_sum   'Er1 Ni2 B2 C1'
_cell_volume   64.35864832
_cell_formula_units_Z   1
loop_
 _symmetry_equiv_pos_site_id
 _symmetry_equiv_pos_as_xyz
  1  'x, y, z'
loop_
 _atom_site_type_symbol
 _atom_site_label
 _atom_site_symmetry_multiplicity
 _atom_site_fract_x
 _atom_site_fract_y
 _atom_site_fract_z
 _atom_site_occupancy
  Er  Er1  1  0.000000  0.000000  0.000000  1.0
  Ni  Ni2  1  0.250000  0.750000  0.500000  1.0
  Ni  Ni3  1  0.750000  0.250000  0.500000  1.0
  B  B4  1  0.357236  0.357236  0.714472  1.0
  B  B5  1  0.642764  0.642764  0.285528  1.0
  C  C6  1  0.500000  0.500000  0.000000  1.0
