# generated using pymatgen
data_Ni2SbTe
_symmetry_space_group_name_H-M   'P 1'
_cell_length_a   3.99296729
_cell_length_b   3.99296739
_cell_length_c   5.21598182
_cell_angle_alpha   90.00000000
_cell_angle_beta   90.00000000
_cell_angle_gamma   119.99999907
_symmetry_Int_Tables_number   1
_chemical_formula_structural   Ni2SbTe
_chemical_formula_sum   'Ni2 Sb1 Te1'
_cell_volume   72.02084635
_cell_formula_units_Z   1
loop_
 _symmetry_equiv_pos_site_id
 _symmetry_equiv_pos_as_xyz
  1  'x, y, z'
loop_
 _atom_site_type_symbol
 _atom_site_label
 _atom_site_symmetry_multiplicity
 _atom_site_fract_x
 _atom_site_fract_y
 _atom_site_fract_z
 _atom_site_occupancy
  Ni  Ni1  1  0.000000  0.000000  0.998000  1.0
  Ni  Ni2  1  0.000000  0.000000  0.502000  1.0
  Sb  Sb3  1  0.666667  0.333333  0.750000  1.0
  Te  Te4  1  0.333333  0.666667  0.250000  1.0
