# generated using pymatgen
data_Cs2NaAlH6
_symmetry_space_group_name_H-M   'P 1'
_cell_length_a   6.09944513
_cell_length_b   6.09944513
_cell_length_c   6.09944513
_cell_angle_alpha   60.00000000
_cell_angle_beta   60.00000000
_cell_angle_gamma   60.00000000
_symmetry_Int_Tables_number   1
_chemical_formula_structural   Cs2NaAlH6
_chemical_formula_sum   'Cs2 Na1 Al1 H6'
_cell_volume   160.45600999
_cell_formula_units_Z   1
loop_
 _symmetry_equiv_pos_site_id
 _symmetry_equiv_pos_as_xyz
  1  'x, y, z'
loop_
 _atom_site_type_symbol
 _atom_site_label
 _atom_site_symmetry_multiplicity
 _atom_site_fract_x
 _atom_site_fract_y
 _atom_site_fract_z
 _atom_site_occupancy
  Cs  Cs1  1  0.250000  0.250000  0.250000  1.0
  Cs  Cs2  1  0.750000  0.750000  0.750000  1.0
  Na  Na3  1  0.500000  0.500000  0.500000  1.0
  Al  Al4  1  0.000000  0.000000  0.000000  1.0
  H  H5  1  0.208755  0.791245  0.791245  1.0
  H  H6  1  0.208755  0.791245  0.208755  1.0
  H  H7  1  0.791245  0.208755  0.791245  1.0
  H  H8  1  0.791245  0.791245  0.208755  1.0
  H  H9  1  0.208755  0.208755  0.791245  1.0
  H  H10  1  0.791245  0.208755  0.208755  1.0
