# generated using pymatgen
data_Mg(BeAs)2
_symmetry_space_group_name_H-M   'P 1'
_cell_length_a   3.79641706
_cell_length_b   3.79644327
_cell_length_c   6.46391248
_cell_angle_alpha   89.99999736
_cell_angle_beta   89.99767675
_cell_angle_gamma   120.00022727
_symmetry_Int_Tables_number   1
_chemical_formula_structural   Mg(BeAs)2
_chemical_formula_sum   'Mg1 Be2 As2'
_cell_volume   80.68186622
_cell_formula_units_Z   1
loop_
 _symmetry_equiv_pos_site_id
 _symmetry_equiv_pos_as_xyz
  1  'x, y, z'
loop_
 _atom_site_type_symbol
 _atom_site_label
 _atom_site_symmetry_multiplicity
 _atom_site_fract_x
 _atom_site_fract_y
 _atom_site_fract_z
 _atom_site_occupancy
  Mg  Mg1  1  0.000000  0.000000  0.000000  1.0
  Be  Be2  1  0.666659  0.333330  0.374618  1.0
  Be  Be3  1  0.333341  0.666671  0.625382  1.0
  As  As4  1  0.333333  0.666667  0.264247  1.0
  As  As5  1  0.666665  0.333334  0.735753  1.0
