# generated using pymatgen
data_Li(TiSe2)3
_symmetry_space_group_name_H-M   'P 1'
_cell_length_a   3.57712424
_cell_length_b   3.57712424
_cell_length_c   22.61088539
_cell_angle_alpha   90.00000000
_cell_angle_beta   90.00000000
_cell_angle_gamma   120.00000003
_symmetry_Int_Tables_number   1
_chemical_formula_structural   Li(TiSe2)3
_chemical_formula_sum   'Li1 Ti3 Se6'
_cell_volume   250.56260103
_cell_formula_units_Z   1
loop_
 _symmetry_equiv_pos_site_id
 _symmetry_equiv_pos_as_xyz
  1  'x, y, z'
loop_
 _atom_site_type_symbol
 _atom_site_label
 _atom_site_symmetry_multiplicity
 _atom_site_fract_x
 _atom_site_fract_y
 _atom_site_fract_z
 _atom_site_occupancy
  Li  Li1  1  0.000000  0.000000  0.500000  1.0
  Ti  Ti2  1  0.000000  0.000000  0.000000  1.0
  Ti  Ti3  1  0.000000  0.000000  0.353059  1.0
  Ti  Ti4  1  0.000000  0.000000  0.646941  1.0
  Se  Se5  1  0.333333  0.666667  0.423958  1.0
  Se  Se6  1  0.666667  0.333333  0.576042  1.0
  Se  Se7  1  0.333333  0.666667  0.713461  1.0
  Se  Se8  1  0.666667  0.333333  0.286539  1.0
  Se  Se9  1  0.333333  0.666667  0.067910  1.0
  Se  Se10  1  0.666667  0.333333  0.932090  1.0
