# generated using pymatgen
data_Ti3Nb
_symmetry_space_group_name_H-M   'P 1'
_cell_length_a   5.29105394
_cell_length_b   5.29105394
_cell_length_c   5.29105394
_cell_angle_alpha   136.10492123
_cell_angle_beta   136.10492123
_cell_angle_gamma   63.81816703
_symmetry_Int_Tables_number   1
_chemical_formula_structural   Ti3Nb
_chemical_formula_sum   'Ti3 Nb1'
_cell_volume   70.26138841
_cell_formula_units_Z   1
loop_
 _symmetry_equiv_pos_site_id
 _symmetry_equiv_pos_as_xyz
  1  'x, y, z'
loop_
 _atom_site_type_symbol
 _atom_site_label
 _atom_site_symmetry_multiplicity
 _atom_site_fract_x
 _atom_site_fract_y
 _atom_site_fract_z
 _atom_site_occupancy
  Ti  Ti1  1  0.750003  0.250001  0.500002  1.0
  Ti  Ti2  1  0.250001  0.750003  0.500002  1.0
  Ti  Ti3  1  0.500000  0.500000  0.000000  1.0
  Nb  Nb4  1  0.000000  0.000000  0.000000  1.0
