# generated using pymatgen
data_SnP3
_symmetry_space_group_name_H-M   'P 1'
_cell_length_a   5.60695563
_cell_length_b   5.60695563
_cell_length_c   5.60695520
_cell_angle_alpha   83.85152864
_cell_angle_beta   83.85152864
_cell_angle_gamma   83.85152167
_symmetry_Int_Tables_number   1
_chemical_formula_structural   SnP3
_chemical_formula_sum   'Sn2 P6'
_cell_volume   173.43174106
_cell_formula_units_Z   2
loop_
 _symmetry_equiv_pos_site_id
 _symmetry_equiv_pos_as_xyz
  1  'x, y, z'
loop_
 _atom_site_type_symbol
 _atom_site_label
 _atom_site_symmetry_multiplicity
 _atom_site_fract_x
 _atom_site_fract_y
 _atom_site_fract_z
 _atom_site_occupancy
  Sn  Sn1  1  0.742713  0.742713  0.742713  1.0
  Sn  Sn2  1  0.257287  0.257287  0.257287  1.0
  P  P3  1  0.746637  0.200804  0.200804  1.0
  P  P4  1  0.200804  0.200804  0.746637  1.0
  P  P5  1  0.200804  0.746637  0.200804  1.0
  P  P6  1  0.253363  0.799196  0.799196  1.0
  P  P7  1  0.799196  0.799196  0.253363  1.0
  P  P8  1  0.799196  0.253363  0.799196  1.0
