# generated using pymatgen
data_K2ZnO2
_symmetry_space_group_name_H-M   'P 1'
_cell_length_a   5.50031848
_cell_length_b   6.09319385
_cell_length_c   6.67608082
_cell_angle_alpha   117.15151524
_cell_angle_beta   114.32689760
_cell_angle_gamma   89.99999997
_symmetry_Int_Tables_number   1
_chemical_formula_structural   K2ZnO2
_chemical_formula_sum   'K4 Zn2 O4'
_cell_volume   176.46884102
_cell_formula_units_Z   2
loop_
 _symmetry_equiv_pos_site_id
 _symmetry_equiv_pos_as_xyz
  1  'x, y, z'
loop_
 _atom_site_type_symbol
 _atom_site_label
 _atom_site_symmetry_multiplicity
 _atom_site_fract_x
 _atom_site_fract_y
 _atom_site_fract_z
 _atom_site_occupancy
  K  K1  1  0.347698  0.211349  0.695396  1.0
  K  K2  1  0.652302  0.788651  0.304604  1.0
  K  K3  1  0.847698  0.484047  0.695396  1.0
  K  K4  1  0.152302  0.515953  0.304604  1.0
  Zn  Zn5  1  0.750000  0.000000  0.000000  1.0
  Zn  Zn6  1  0.250000  0.000000  0.000000  1.0
  O  O7  1  0.404548  0.718938  0.809095  1.0
  O  O8  1  0.595452  0.281062  0.190905  1.0
  O  O9  1  0.095452  0.909842  0.190905  1.0
  O  O10  1  0.904548  0.090158  0.809095  1.0
