# generated using pymatgen
data_TiP
_symmetry_space_group_name_H-M   'P 1'
_cell_length_a   7.33334749
_cell_length_b   7.33334770
_cell_length_c   4.87092417
_cell_angle_alpha   90.00000000
_cell_angle_beta   90.00000000
_cell_angle_gamma   119.99999910
_symmetry_Int_Tables_number   1
_chemical_formula_structural   TiP
_chemical_formula_sum   'Ti6 P6'
_cell_volume   226.85405446
_cell_formula_units_Z   6
loop_
 _symmetry_equiv_pos_site_id
 _symmetry_equiv_pos_as_xyz
  1  'x, y, z'
loop_
 _atom_site_type_symbol
 _atom_site_label
 _atom_site_symmetry_multiplicity
 _atom_site_fract_x
 _atom_site_fract_y
 _atom_site_fract_z
 _atom_site_occupancy
  Ti  Ti1  1  0.667074  0.667074  0.250000  1.0
  Ti  Ti2  1  0.332926  0.000000  0.250000  1.0
  Ti  Ti3  1  0.000000  0.332926  0.250000  1.0
  Ti  Ti4  1  0.332926  0.332926  0.750000  1.0
  Ti  Ti5  1  0.667074  0.000000  0.750000  1.0
  Ti  Ti6  1  0.000000  0.667074  0.750000  1.0
  P  P7  1  0.333555  0.333555  0.250000  1.0
  P  P8  1  0.666445  0.000000  0.250000  1.0
  P  P9  1  0.000000  0.666445  0.250000  1.0
  P  P10  1  0.666445  0.666445  0.750000  1.0
  P  P11  1  0.333555  0.000000  0.750000  1.0
  P  P12  1  0.000000  0.333555  0.750000  1.0
