# generated using pymatgen
data_CsPbBr3
_symmetry_space_group_name_H-M   'P 1'
_cell_length_a   6.01734030
_cell_length_b   6.01732589
_cell_length_c   6.01733596
_cell_angle_alpha   89.99991488
_cell_angle_beta   90.00002771
_cell_angle_gamma   90.00014321
_symmetry_Int_Tables_number   1
_chemical_formula_structural   CsPbBr3
_chemical_formula_sum   'Cs1 Pb1 Br3'
_cell_volume   217.87749105
_cell_formula_units_Z   1
loop_
 _symmetry_equiv_pos_site_id
 _symmetry_equiv_pos_as_xyz
  1  'x, y, z'
loop_
 _atom_site_type_symbol
 _atom_site_label
 _atom_site_symmetry_multiplicity
 _atom_site_fract_x
 _atom_site_fract_y
 _atom_site_fract_z
 _atom_site_occupancy
  Cs  Cs1  1  0.000000  0.000000  0.000000  1.0
  Pb  Pb2  1  0.499999  0.500000  0.500000  1.0
  Br  Br3  1  0.500000  0.500000  0.000000  1.0
  Br  Br4  1  0.500000  0.000000  0.500000  1.0
  Br  Br5  1  0.000000  0.500000  0.500000  1.0
