# generated using pymatgen
data_YbAgS2
_symmetry_space_group_name_H-M   'P 1'
_cell_length_a   5.55018426
_cell_length_b   5.55018426
_cell_length_c   6.67889842
_cell_angle_alpha   114.55090057
_cell_angle_beta   114.55090062
_cell_angle_gamma   90.00000003
_symmetry_Int_Tables_number   1
_chemical_formula_structural   YbAgS2
_chemical_formula_sum   'Yb2 Ag2 S4'
_cell_volume   166.47402009
_cell_formula_units_Z   2
loop_
 _symmetry_equiv_pos_site_id
 _symmetry_equiv_pos_as_xyz
  1  'x, y, z'
loop_
 _atom_site_type_symbol
 _atom_site_label
 _atom_site_symmetry_multiplicity
 _atom_site_fract_x
 _atom_site_fract_y
 _atom_site_fract_z
 _atom_site_occupancy
  Yb  Yb1  1  0.625000  0.375000  0.250000  1.0
  Yb  Yb2  1  0.375000  0.625000  0.750000  1.0
  Ag  Ag3  1  0.875000  0.125000  0.750000  1.0
  Ag  Ag4  1  0.125000  0.875000  0.250000  1.0
  S  S5  1  0.114962  0.364962  0.229924  1.0
  S  S6  1  0.364962  0.114962  0.729924  1.0
  S  S7  1  0.635038  0.885038  0.270076  1.0
  S  S8  1  0.885038  0.635038  0.770076  1.0
