# generated using pymatgen
data_La2Si4CN6
_symmetry_space_group_name_H-M   'P 1'
_cell_length_a   6.04106167
_cell_length_b   10.22881558
_cell_length_c   10.59125912
_cell_angle_alpha   90.00000000
_cell_angle_beta   90.00000000
_cell_angle_gamma   90.00000000
_symmetry_Int_Tables_number   1
_chemical_formula_structural   La2Si4CN6
_chemical_formula_sum   'La8 Si16 C4 N24'
_cell_volume   654.46467636
_cell_formula_units_Z   4
loop_
 _symmetry_equiv_pos_site_id
 _symmetry_equiv_pos_as_xyz
  1  'x, y, z'
loop_
 _atom_site_type_symbol
 _atom_site_label
 _atom_site_symmetry_multiplicity
 _atom_site_fract_x
 _atom_site_fract_y
 _atom_site_fract_z
 _atom_site_occupancy
  La  La1  1  0.750001  0.049097  0.604103  1.0
  La  La2  1  0.250000  0.450904  0.104103  1.0
  La  La3  1  0.750001  0.407326  0.560735  1.0
  La  La4  1  0.250000  0.092674  0.060735  1.0
  La  La5  1  0.750001  0.907325  0.939265  1.0
  La  La6  1  0.250000  0.592674  0.439265  1.0
  La  La7  1  0.750001  0.549097  0.895897  1.0
  La  La8  1  0.250000  0.950903  0.395898  1.0
  Si  Si9  1  0.750001  0.517630  0.261305  1.0
  Si  Si10  1  0.250000  0.982370  0.761304  1.0
  Si  Si11  1  0.750001  0.017631  0.238696  1.0
  Si  Si12  1  0.250000  0.482370  0.738695  1.0
  Si  Si13  1  0.750001  0.298152  0.075469  1.0
  Si  Si14  1  0.250000  0.201848  0.575468  1.0
  Si  Si15  1  0.750001  0.798152  0.424532  1.0
  Si  Si16  1  0.250000  0.701848  0.924532  1.0
  Si  Si17  1  0.503388  0.727402  0.670103  1.0
  Si  Si18  1  0.496610  0.772598  0.170104  1.0
  Si  Si19  1  0.996610  0.227401  0.829897  1.0
  Si  Si20  1  0.003389  0.272598  0.329897  1.0
  Si  Si21  1  0.496610  0.272598  0.329897  1.0
  Si  Si22  1  0.503388  0.227401  0.829897  1.0
  Si  Si23  1  0.003389  0.772598  0.170104  1.0
  Si  Si24  1  0.996610  0.727402  0.670103  1.0
  C  C25  1  0.750001  0.205149  0.235877  1.0
  C  C26  1  0.250000  0.294852  0.735877  1.0
  C  C27  1  0.750001  0.705149  0.264122  1.0
  C  C28  1  0.250000  0.794851  0.764123  1.0
  N  N29  1  0.750001  0.966000  0.392691  1.0
  N  N30  1  0.250000  0.534000  0.892691  1.0
  N  N31  1  0.009150  0.720306  0.013528  1.0
  N  N32  1  0.990851  0.779694  0.513527  1.0
  N  N33  1  0.490850  0.220306  0.486473  1.0
  N  N34  1  0.509149  0.279694  0.986472  1.0
  N  N35  1  0.990851  0.279694  0.986472  1.0
  N  N36  1  0.009150  0.220306  0.486473  1.0
  N  N37  1  0.509149  0.779694  0.513527  1.0
  N  N38  1  0.980160  0.445776  0.335229  1.0
  N  N39  1  0.519838  0.445776  0.335229  1.0
  N  N40  1  0.480161  0.054224  0.835229  1.0
  N  N41  1  0.980160  0.945776  0.164770  1.0
  N  N42  1  0.019838  0.554225  0.664771  1.0
  N  N43  1  0.250000  0.231221  0.253017  1.0
  N  N44  1  0.750001  0.268779  0.753017  1.0
  N  N45  1  0.250000  0.731220  0.246982  1.0
  N  N46  1  0.750001  0.768779  0.746983  1.0
  N  N47  1  0.490850  0.720306  0.013528  1.0
  N  N48  1  0.480161  0.554225  0.664771  1.0
  N  N49  1  0.519838  0.945776  0.164770  1.0
  N  N50  1  0.019838  0.054224  0.835229  1.0
  N  N51  1  0.750001  0.466000  0.107309  1.0
  N  N52  1  0.250000  0.034001  0.607309  1.0
