# generated using pymatgen
data_ScSi3Ni2
_symmetry_space_group_name_H-M   'P 1'
_cell_length_a   3.79038612
_cell_length_b   3.79038613
_cell_length_c   12.19802212
_cell_angle_alpha   98.93819079
_cell_angle_beta   98.93819081
_cell_angle_gamma   90.00000002
_symmetry_Int_Tables_number   1
_chemical_formula_structural   ScSi3Ni2
_chemical_formula_sum   'Sc2 Si6 Ni4'
_cell_volume   170.96655267
_cell_formula_units_Z   2
loop_
 _symmetry_equiv_pos_site_id
 _symmetry_equiv_pos_as_xyz
  1  'x, y, z'
loop_
 _atom_site_type_symbol
 _atom_site_label
 _atom_site_symmetry_multiplicity
 _atom_site_fract_x
 _atom_site_fract_y
 _atom_site_fract_z
 _atom_site_occupancy
  Sc  Sc1  1  0.850417  0.850417  0.700834  1.0
  Sc  Sc2  1  0.149583  0.149583  0.299166  1.0
  Si  Si3  1  0.950299  0.450299  0.900598  1.0
  Si  Si4  1  0.450299  0.950299  0.900598  1.0
  Si  Si5  1  0.049701  0.549701  0.099402  1.0
  Si  Si6  1  0.306061  0.306061  0.612123  1.0
  Si  Si7  1  0.693939  0.693939  0.387877  1.0
  Si  Si8  1  0.549701  0.049701  0.099402  1.0
  Ni  Ni9  1  0.750000  0.250000  0.500000  1.0
  Ni  Ni10  1  0.250000  0.750000  0.500000  1.0
  Ni  Ni11  1  0.400227  0.400227  0.800454  1.0
  Ni  Ni12  1  0.599773  0.599773  0.199546  1.0
