# generated using pymatgen
data_YbB2Ir3
_symmetry_space_group_name_H-M   'P 1'
_cell_length_a   2.92881247
_cell_length_b   5.63076060
_cell_length_c   5.63076060
_cell_angle_alpha   120.00004881
_cell_angle_beta   89.95893786
_cell_angle_gamma   89.95893786
_symmetry_Int_Tables_number   1
_chemical_formula_structural   YbB2Ir3
_chemical_formula_sum   'Yb1 B2 Ir3'
_cell_volume   80.41844350
_cell_formula_units_Z   1
loop_
 _symmetry_equiv_pos_site_id
 _symmetry_equiv_pos_as_xyz
  1  'x, y, z'
loop_
 _atom_site_type_symbol
 _atom_site_label
 _atom_site_symmetry_multiplicity
 _atom_site_fract_x
 _atom_site_fract_y
 _atom_site_fract_z
 _atom_site_occupancy
  Yb  Yb1  1  0.500000  0.500000  0.500000  1.0
  B  B2  1  0.500000  0.833329  0.166671  1.0
  B  B3  1  0.500000  0.166671  0.833329  1.0
  Ir  Ir4  1  0.000000  0.500000  0.000000  1.0
  Ir  Ir5  1  0.000000  0.000000  0.500000  1.0
  Ir  Ir6  1  0.000000  0.000000  0.000000  1.0
