# generated using pymatgen
data_Cr3N2
_symmetry_space_group_name_H-M   'P 1'
_cell_length_a   2.86535763
_cell_length_b   2.86535763
_cell_length_c   6.11320015
_cell_angle_alpha   103.55379611
_cell_angle_beta   103.55379611
_cell_angle_gamma   90.00000000
_symmetry_Int_Tables_number   1
_chemical_formula_structural   Cr3N2
_chemical_formula_sum   'Cr3 N2'
_cell_volume   47.35419695
_cell_formula_units_Z   1
loop_
 _symmetry_equiv_pos_site_id
 _symmetry_equiv_pos_as_xyz
  1  'x, y, z'
loop_
 _atom_site_type_symbol
 _atom_site_label
 _atom_site_symmetry_multiplicity
 _atom_site_fract_x
 _atom_site_fract_y
 _atom_site_fract_z
 _atom_site_occupancy
  Cr  Cr1  1  0.000000  0.000000  0.000000  1.0
  Cr  Cr2  1  0.653154  0.653154  0.306307  1.0
  Cr  Cr3  1  0.346846  0.346846  0.693693  1.0
  N  N4  1  0.831651  0.831651  0.663301  1.0
  N  N5  1  0.168349  0.168349  0.336699  1.0
