# generated using pymatgen
data_ReIr3
_symmetry_space_group_name_H-M   'P 1'
_cell_length_a   5.53935402
_cell_length_b   5.53935473
_cell_length_c   4.39832508
_cell_angle_alpha   90.00000000
_cell_angle_beta   90.00000000
_cell_angle_gamma   120.00000184
_symmetry_Int_Tables_number   1
_chemical_formula_structural   ReIr3
_chemical_formula_sum   'Re2 Ir6'
_cell_volume   116.87893557
_cell_formula_units_Z   2
loop_
 _symmetry_equiv_pos_site_id
 _symmetry_equiv_pos_as_xyz
  1  'x, y, z'
loop_
 _atom_site_type_symbol
 _atom_site_label
 _atom_site_symmetry_multiplicity
 _atom_site_fract_x
 _atom_site_fract_y
 _atom_site_fract_z
 _atom_site_occupancy
  Re  Re1  1  0.333334  0.666667  0.750000  1.0
  Re  Re2  1  0.666666  0.333331  0.249999  1.0
  Ir  Ir3  1  0.167426  0.334851  0.249999  1.0
  Ir  Ir4  1  0.665148  0.832573  0.249999  1.0
  Ir  Ir5  1  0.167426  0.832573  0.249999  1.0
  Ir  Ir6  1  0.832574  0.665148  0.750000  1.0
  Ir  Ir7  1  0.334853  0.167428  0.750000  1.0
  Ir  Ir8  1  0.832573  0.167428  0.750000  1.0
