# generated using pymatgen
data_Sr2CdWO6
_symmetry_space_group_name_H-M   'P 1'
_cell_length_a   5.90784032
_cell_length_b   5.90784032
_cell_length_c   5.90784032
_cell_angle_alpha   59.99999999
_cell_angle_beta   60.00000001
_cell_angle_gamma   59.99999999
_symmetry_Int_Tables_number   1
_chemical_formula_structural   Sr2CdWO6
_chemical_formula_sum   'Sr2 Cd1 W1 O6'
_cell_volume   145.80460731
_cell_formula_units_Z   1
loop_
 _symmetry_equiv_pos_site_id
 _symmetry_equiv_pos_as_xyz
  1  'x, y, z'
loop_
 _atom_site_type_symbol
 _atom_site_label
 _atom_site_symmetry_multiplicity
 _atom_site_fract_x
 _atom_site_fract_y
 _atom_site_fract_z
 _atom_site_occupancy
  Sr  Sr1  1  0.250000  0.250000  0.250000  1.0
  Sr  Sr2  1  0.750000  0.750000  0.750000  1.0
  Cd  Cd3  1  0.500000  0.500000  0.500000  1.0
  W  W4  1  0.000000  0.000000  0.000000  1.0
  O  O5  1  0.232358  0.767642  0.767642  1.0
  O  O6  1  0.232358  0.767642  0.232358  1.0
  O  O7  1  0.767642  0.232358  0.767642  1.0
  O  O8  1  0.232358  0.232358  0.767642  1.0
  O  O9  1  0.767642  0.232358  0.232358  1.0
  O  O10  1  0.767642  0.767642  0.232358  1.0
