# generated using pymatgen
data_NiH
_symmetry_space_group_name_H-M   'P 1'
_cell_length_a   2.62493170
_cell_length_b   2.62493171
_cell_length_c   2.62493171
_cell_angle_alpha   60.00000011
_cell_angle_beta   60.00000005
_cell_angle_gamma   60.00000017
_symmetry_Int_Tables_number   1
_chemical_formula_structural   NiH
_chemical_formula_sum   'Ni1 H1'
_cell_volume   12.78907192
_cell_formula_units_Z   1
loop_
 _symmetry_equiv_pos_site_id
 _symmetry_equiv_pos_as_xyz
  1  'x, y, z'
loop_
 _atom_site_type_symbol
 _atom_site_label
 _atom_site_symmetry_multiplicity
 _atom_site_fract_x
 _atom_site_fract_y
 _atom_site_fract_z
 _atom_site_occupancy
  Ni  Ni1  1  0.000000  0.000000  0.000000  1.0
  H  H2  1  0.500000  0.500000  0.500000  1.0
