# generated using pymatgen
data_MgF2
_symmetry_space_group_name_H-M   'P 1'
_cell_length_a   5.01233903
_cell_length_b   5.01233903
_cell_length_c   5.01233903
_cell_angle_alpha   90.00000000
_cell_angle_beta   90.00000000
_cell_angle_gamma   90.00000000
_symmetry_Int_Tables_number   1
_chemical_formula_structural   MgF2
_chemical_formula_sum   'Mg4 F8'
_cell_volume   125.92771290
_cell_formula_units_Z   4
loop_
 _symmetry_equiv_pos_site_id
 _symmetry_equiv_pos_as_xyz
  1  'x, y, z'
loop_
 _atom_site_type_symbol
 _atom_site_label
 _atom_site_symmetry_multiplicity
 _atom_site_fract_x
 _atom_site_fract_y
 _atom_site_fract_z
 _atom_site_occupancy
  Mg  Mg1  1  0.000000  0.500000  0.500000  1.0
  Mg  Mg2  1  0.500000  0.500000  0.000000  1.0
  Mg  Mg3  1  0.500000  0.000000  0.500000  1.0
  Mg  Mg4  1  0.000000  0.000000  0.000000  1.0
  F  F5  1  0.339927  0.160073  0.839927  1.0
  F  F6  1  0.160073  0.839927  0.339927  1.0
  F  F7  1  0.839927  0.339927  0.160073  1.0
  F  F8  1  0.660073  0.660073  0.660073  1.0
  F  F9  1  0.339927  0.339927  0.339927  1.0
  F  F10  1  0.160073  0.660073  0.839927  1.0
  F  F11  1  0.839927  0.160073  0.660073  1.0
  F  F12  1  0.660073  0.839927  0.160073  1.0
