# generated using pymatgen
data_Co3TeO8
_symmetry_space_group_name_H-M   'P 1'
_cell_length_a   5.94490421
_cell_length_b   5.94490425
_cell_length_c   5.94250804
_cell_angle_alpha   59.98666116
_cell_angle_beta   59.98666449
_cell_angle_gamma   60.00000354
_symmetry_Int_Tables_number   1
_chemical_formula_structural   Co3TeO8
_chemical_formula_sum   'Co3 Te1 O8'
_cell_volume   148.47623206
_cell_formula_units_Z   1
loop_
 _symmetry_equiv_pos_site_id
 _symmetry_equiv_pos_as_xyz
  1  'x, y, z'
loop_
 _atom_site_type_symbol
 _atom_site_label
 _atom_site_symmetry_multiplicity
 _atom_site_fract_x
 _atom_site_fract_y
 _atom_site_fract_z
 _atom_site_occupancy
  Co  Co1  1  0.500000  0.000000  0.000000  1.0
  Co  Co2  1  0.000000  0.500000  0.000000  1.0
  Co  Co3  1  0.500000  0.500000  0.000000  1.0
  Te  Te4  1  0.000000  0.000000  0.000000  1.0
  O  O5  1  0.233177  0.233177  0.790623  1.0
  O  O6  1  0.743023  0.233177  0.790623  1.0
  O  O7  1  0.233177  0.743023  0.790623  1.0
  O  O8  1  0.723037  0.723037  0.830890  1.0
  O  O9  1  0.276963  0.276963  0.169110  1.0
  O  O10  1  0.766823  0.256977  0.209377  1.0
  O  O11  1  0.256977  0.766823  0.209377  1.0
  O  O12  1  0.766823  0.766823  0.209377  1.0
