# generated using pymatgen
data_LiVF4
_symmetry_space_group_name_H-M   'P 1'
_cell_length_a   3.13109280
_cell_length_b   6.77205278
_cell_length_c   6.52753999
_cell_angle_alpha   90.00000000
_cell_angle_beta   90.12750817
_cell_angle_gamma   90.00000000
_symmetry_Int_Tables_number   1
_chemical_formula_structural   LiVF4
_chemical_formula_sum   'Li2 V2 F8'
_cell_volume   138.40913021
_cell_formula_units_Z   2
loop_
 _symmetry_equiv_pos_site_id
 _symmetry_equiv_pos_as_xyz
  1  'x, y, z'
loop_
 _atom_site_type_symbol
 _atom_site_label
 _atom_site_symmetry_multiplicity
 _atom_site_fract_x
 _atom_site_fract_y
 _atom_site_fract_z
 _atom_site_occupancy
  Li  Li1  1  0.016551  0.250000  0.753578  1.0
  Li  Li2  1  0.983714  0.750000  0.256353  1.0
  V  V3  1  0.501347  0.250000  0.254611  1.0
  V  V4  1  0.498709  0.750000  0.753858  1.0
  F  F5  1  0.999404  0.940033  0.753025  1.0
  F  F6  1  0.999404  0.559967  0.753025  1.0
  F  F7  1  0.494797  0.750000  0.460463  1.0
  F  F8  1  0.507430  0.250000  0.547787  1.0
  F  F9  1  0.495003  0.750000  0.046958  1.0
  F  F10  1  0.502305  0.250000  0.961413  1.0
  F  F11  1  0.000668  0.440035  0.254868  1.0
  F  F12  1  0.000668  0.059965  0.254868  1.0
