# generated using pymatgen
data_Cu3Pd
_symmetry_space_group_name_H-M   'P 1'
_cell_length_a   3.72825980
_cell_length_b   3.72825546
_cell_length_c   25.82506436
_cell_angle_alpha   90.00005749
_cell_angle_beta   89.99999328
_cell_angle_gamma   90.00000061
_symmetry_Int_Tables_number   1
_chemical_formula_structural   Cu3Pd
_chemical_formula_sum   'Cu21 Pd7'
_cell_volume   358.96594008
_cell_formula_units_Z   7
loop_
 _symmetry_equiv_pos_site_id
 _symmetry_equiv_pos_as_xyz
  1  'x, y, z'
loop_
 _atom_site_type_symbol
 _atom_site_label
 _atom_site_symmetry_multiplicity
 _atom_site_fract_x
 _atom_site_fract_y
 _atom_site_fract_z
 _atom_site_occupancy
  Cu  Cu1  1  0.500000  0.000000  0.142899  1.0
  Cu  Cu2  1  0.499999  0.499999  0.928631  1.0
  Cu  Cu3  1  0.000002  0.000000  0.642941  1.0
  Cu  Cu4  1  0.500002  0.499999  0.785680  1.0
  Cu  Cu5  1  0.499999  0.000001  0.285719  1.0
  Cu  Cu6  1  0.999998  0.500000  0.714282  1.0
  Cu  Cu7  1  0.500001  0.000000  0.857098  1.0
  Cu  Cu8  1  0.500000  0.500001  0.071367  1.0
  Cu  Cu9  1  0.500001  0.000001  0.571422  1.0
  Cu  Cu10  1  0.000001  0.500000  0.142899  1.0
  Cu  Cu11  1  0.000001  0.499999  0.428582  1.0
  Cu  Cu12  1  0.499999  0.999999  0.714282  1.0
  Cu  Cu13  1  0.000000  0.500000  0.857098  1.0
  Cu  Cu14  1  0.000000  0.500002  0.571422  1.0
  Cu  Cu15  1  0.999998  0.999999  0.357061  1.0
  Cu  Cu16  1  0.500000  0.000000  0.428582  1.0
  Cu  Cu17  1  0.500001  0.500001  0.214320  1.0
  Cu  Cu18  1  0.999999  0.500000  0.285719  1.0
  Cu  Cu19  1  0.000001  0.000001  0.500003  1.0
  Cu  Cu20  1  0.000000  0.500000  0.999997  1.0
  Cu  Cu21  1  0.499998  0.999998  0.999997  1.0
  Pd  Pd22  1  0.499999  0.500001  0.357060  1.0
  Pd  Pd23  1  0.999999  0.000002  0.928504  1.0
  Pd  Pd24  1  0.500001  0.499999  0.642941  1.0
  Pd  Pd25  1  0.000001  0.999998  0.785614  1.0
  Pd  Pd26  1  0.500000  0.500001  0.500002  1.0
  Pd  Pd27  1  0.000001  0.999999  0.071492  1.0
  Pd  Pd28  1  0.000001  0.000000  0.214386  1.0
