# generated using pymatgen
data_LiSn
_symmetry_space_group_name_H-M   'P 1'
_cell_length_a   4.44482400
_cell_length_b   4.44482401
_cell_length_c   13.41148038
_cell_angle_alpha   99.53846312
_cell_angle_beta   99.53846313
_cell_angle_gamma   90.00000004
_symmetry_Int_Tables_number   1
_chemical_formula_structural   LiSn
_chemical_formula_sum   'Li6 Sn6'
_cell_volume   257.58483106
_cell_formula_units_Z   6
loop_
 _symmetry_equiv_pos_site_id
 _symmetry_equiv_pos_as_xyz
  1  'x, y, z'
loop_
 _atom_site_type_symbol
 _atom_site_label
 _atom_site_symmetry_multiplicity
 _atom_site_fract_x
 _atom_site_fract_y
 _atom_site_fract_z
 _atom_site_occupancy
  Li  Li1  1  0.038337  0.788337  0.576674  1.0
  Li  Li2  1  0.288337  0.538337  0.076674  1.0
  Li  Li3  1  0.961663  0.211663  0.423326  1.0
  Li  Li4  1  0.711663  0.461663  0.923326  1.0
  Li  Li5  1  0.125000  0.375000  0.750000  1.0
  Li  Li6  1  0.875000  0.625000  0.250000  1.0
  Sn  Sn7  1  0.625000  0.875000  0.750000  1.0
  Sn  Sn8  1  0.375000  0.125000  0.250000  1.0
  Sn  Sn9  1  0.205073  0.955073  0.910145  1.0
  Sn  Sn10  1  0.455073  0.705073  0.410145  1.0
  Sn  Sn11  1  0.794927  0.044927  0.089855  1.0
  Sn  Sn12  1  0.544927  0.294927  0.589855  1.0
