# generated using pymatgen
data_Na5ReO6
_symmetry_space_group_name_H-M   'P 1'
_cell_length_a   5.69904142
_cell_length_b   5.69904143
_cell_length_c   5.67180634
_cell_angle_alpha   100.35305154
_cell_angle_beta   100.35305151
_cell_angle_gamma   119.41002007
_symmetry_Int_Tables_number   1
_chemical_formula_structural   Na5ReO6
_chemical_formula_sum   'Na5 Re1 O6'
_cell_volume   149.94594894
_cell_formula_units_Z   1
loop_
 _symmetry_equiv_pos_site_id
 _symmetry_equiv_pos_as_xyz
  1  'x, y, z'
loop_
 _atom_site_type_symbol
 _atom_site_label
 _atom_site_symmetry_multiplicity
 _atom_site_fract_x
 _atom_site_fract_y
 _atom_site_fract_z
 _atom_site_occupancy
  Na  Na1  1  0.829086  0.170914  0.500000  1.0
  Na  Na2  1  0.333537  0.666463  0.000000  1.0
  Na  Na3  1  0.666463  0.333537  0.000000  1.0
  Na  Na4  1  0.500000  0.500000  0.500000  1.0
  Na  Na5  1  0.170914  0.829086  0.500000  1.0
  Re  Re6  1  0.000000  0.000000  0.000000  1.0
  O  O7  1  0.796937  0.796937  0.202263  1.0
  O  O8  1  0.346282  0.069809  0.213965  1.0
  O  O9  1  0.930191  0.653718  0.786035  1.0
  O  O10  1  0.653718  0.930191  0.786035  1.0
  O  O11  1  0.069809  0.346282  0.213965  1.0
  O  O12  1  0.203063  0.203063  0.797737  1.0
