# generated using pymatgen
data_VOF
_symmetry_space_group_name_H-M   'P 1'
_cell_length_a   7.23801819
_cell_length_b   5.25504521
_cell_length_c   3.30761762
_cell_angle_alpha   90.00000000
_cell_angle_beta   90.00000000
_cell_angle_gamma   90.00000000
_symmetry_Int_Tables_number   1
_chemical_formula_structural   VOF
_chemical_formula_sum   'V4 O4 F4'
_cell_volume   125.80891696
_cell_formula_units_Z   4
loop_
 _symmetry_equiv_pos_site_id
 _symmetry_equiv_pos_as_xyz
  1  'x, y, z'
loop_
 _atom_site_type_symbol
 _atom_site_label
 _atom_site_symmetry_multiplicity
 _atom_site_fract_x
 _atom_site_fract_y
 _atom_site_fract_z
 _atom_site_occupancy
  V  V1  1  0.155209  0.866420  0.750000  1.0
  V  V2  1  0.344791  0.366420  0.250000  1.0
  V  V3  1  0.655209  0.633580  0.750000  1.0
  V  V4  1  0.844791  0.133580  0.250000  1.0
  O  O5  1  0.125870  0.103158  0.250000  1.0
  O  O6  1  0.374130  0.603158  0.750000  1.0
  O  O7  1  0.625870  0.396842  0.250000  1.0
  O  O8  1  0.874130  0.896842  0.750000  1.0
  F  F9  1  0.115486  0.618304  0.250000  1.0
  F  F10  1  0.384514  0.118304  0.750000  1.0
  F  F11  1  0.615486  0.881696  0.250000  1.0
  F  F12  1  0.884514  0.381696  0.750000  1.0
