# generated using pymatgen
data_Ho(NiP)2
_symmetry_space_group_name_H-M   'P 1'
_cell_length_a   3.86284084
_cell_length_b   3.86284085
_cell_length_c   5.42005860
_cell_angle_alpha   110.87600796
_cell_angle_beta   110.87600801
_cell_angle_gamma   89.99999996
_symmetry_Int_Tables_number   1
_chemical_formula_structural   Ho(NiP)2
_chemical_formula_sum   'Ho1 Ni2 P2'
_cell_volume   69.85490499
_cell_formula_units_Z   1
loop_
 _symmetry_equiv_pos_site_id
 _symmetry_equiv_pos_as_xyz
  1  'x, y, z'
loop_
 _atom_site_type_symbol
 _atom_site_label
 _atom_site_symmetry_multiplicity
 _atom_site_fract_x
 _atom_site_fract_y
 _atom_site_fract_z
 _atom_site_occupancy
  Ho  Ho1  1  0.000000  0.000000  0.000000  1.0
  Ni  Ni2  1  0.750000  0.250000  0.500000  1.0
  Ni  Ni3  1  0.250000  0.750000  0.500000  1.0
  P  P4  1  0.622481  0.622481  0.244962  1.0
  P  P5  1  0.377519  0.377519  0.755038  1.0
