# generated using pymatgen
data_Cs2SnI6
_symmetry_space_group_name_H-M   'P 1'
_cell_length_a   8.53159727
_cell_length_b   8.53159727
_cell_length_c   8.53159727
_cell_angle_alpha   60.00000003
_cell_angle_beta   60.00000003
_cell_angle_gamma   60.00000002
_symmetry_Int_Tables_number   1
_chemical_formula_structural   Cs2SnI6
_chemical_formula_sum   'Cs2 Sn1 I6'
_cell_volume   439.11274478
_cell_formula_units_Z   1
loop_
 _symmetry_equiv_pos_site_id
 _symmetry_equiv_pos_as_xyz
  1  'x, y, z'
loop_
 _atom_site_type_symbol
 _atom_site_label
 _atom_site_symmetry_multiplicity
 _atom_site_fract_x
 _atom_site_fract_y
 _atom_site_fract_z
 _atom_site_occupancy
  Cs  Cs1  1  0.250000  0.250000  0.250000  1.0
  Cs  Cs2  1  0.750000  0.750000  0.750000  1.0
  Sn  Sn3  1  0.000000  0.000000  0.000000  1.0
  I  I4  1  0.758757  0.758757  0.241243  1.0
  I  I5  1  0.241243  0.758757  0.758757  1.0
  I  I6  1  0.758757  0.241243  0.241243  1.0
  I  I7  1  0.241243  0.241243  0.758757  1.0
  I  I8  1  0.758757  0.241243  0.758757  1.0
  I  I9  1  0.241243  0.758757  0.241243  1.0
