# generated using pymatgen
data_Ni15O16
_symmetry_space_group_name_H-M   'P 1'
_cell_length_a   11.88887416
_cell_length_b   11.88482642
_cell_length_c   7.28074644
_cell_angle_alpha   35.25036239
_cell_angle_beta   35.22630709
_cell_angle_gamma   59.95465581
_symmetry_Int_Tables_number   1
_chemical_formula_structural   Ni15O16
_chemical_formula_sum   'Ni15 O16'
_cell_volume   296.61742747
_cell_formula_units_Z   1
loop_
 _symmetry_equiv_pos_site_id
 _symmetry_equiv_pos_as_xyz
  1  'x, y, z'
loop_
 _atom_site_type_symbol
 _atom_site_label
 _atom_site_symmetry_multiplicity
 _atom_site_fract_x
 _atom_site_fract_y
 _atom_site_fract_z
 _atom_site_occupancy
  Ni  Ni1  1  0.999975  0.246027  0.999928  1.0
  Ni  Ni2  1  0.000000  0.500000  0.000000  1.0
  Ni  Ni3  1  0.246181  0.000000  0.999918  1.0
  Ni  Ni4  1  0.246052  0.246027  0.015963  1.0
  Ni  Ni5  1  0.246002  0.492004  0.015992  1.0
  Ni  Ni6  1  0.500000  0.000000  0.000000  1.0
  Ni  Ni7  1  0.246075  0.754042  0.999761  1.0
  Ni  Ni8  1  0.492033  0.245958  0.015930  1.0
  Ni  Ni9  1  0.500000  0.500000  0.000000  1.0
  Ni  Ni10  1  0.753819  0.000000  0.000082  1.0
  Ni  Ni11  1  0.507967  0.754042  0.984070  1.0
  Ni  Ni12  1  0.753925  0.245958  0.000239  1.0
  Ni  Ni13  1  0.753998  0.507996  0.984008  1.0
  Ni  Ni14  1  0.753948  0.753973  0.984037  1.0
  Ni  Ni15  1  0.000025  0.753973  0.000072  1.0
  O  O16  1  0.999997  0.269140  0.461636  1.0
  O  O17  1  0.000000  0.500000  0.500000  1.0
  O  O18  1  0.268522  0.000000  0.463123  1.0
  O  O19  1  0.000003  0.730860  0.538364  1.0
  O  O20  1  0.269143  0.269140  0.461805  1.0
  O  O21  1  0.250200  0.500399  0.499202  1.0
  O  O22  1  0.500000  0.000000  0.500000  1.0
  O  O23  1  0.249555  0.749616  0.501130  1.0
  O  O24  1  0.499939  0.250384  0.499595  1.0
  O  O25  1  0.500000  0.500000  0.500000  1.0
  O  O26  1  0.731478  0.000000  0.536877  1.0
  O  O27  1  0.500061  0.749616  0.500405  1.0
  O  O28  1  0.750445  0.250384  0.498870  1.0
  O  O29  1  0.749800  0.499601  0.500798  1.0
  O  O30  1  0.000000  0.000000  0.500000  1.0
  O  O31  1  0.730857  0.730860  0.538195  1.0
