# generated using pymatgen
data_Mn3NiO8
_symmetry_space_group_name_H-M   'P 1'
_cell_length_a   5.78821107
_cell_length_b   5.78821107
_cell_length_c   5.72022763
_cell_angle_alpha   59.60607096
_cell_angle_beta   59.60607096
_cell_angle_gamma   60.00000000
_symmetry_Int_Tables_number   1
_chemical_formula_structural   Mn3NiO8
_chemical_formula_sum   'Mn3 Ni1 O8'
_cell_volume   134.70239412
_cell_formula_units_Z   1
loop_
 _symmetry_equiv_pos_site_id
 _symmetry_equiv_pos_as_xyz
  1  'x, y, z'
loop_
 _atom_site_type_symbol
 _atom_site_label
 _atom_site_symmetry_multiplicity
 _atom_site_fract_x
 _atom_site_fract_y
 _atom_site_fract_z
 _atom_site_occupancy
  Mn  Mn1  1  0.500000  0.000000  0.500000  1.0
  Mn  Mn2  1  0.500000  0.500000  0.500000  1.0
  Mn  Mn3  1  0.000000  0.500000  0.500000  1.0
  Ni  Ni4  1  0.500000  0.500000  0.000000  1.0
  O  O5  1  0.266704  0.266704  0.260360  1.0
  O  O6  1  0.706232  0.266704  0.260360  1.0
  O  O7  1  0.266704  0.706232  0.260360  1.0
  O  O8  1  0.262661  0.262661  0.712017  1.0
  O  O9  1  0.737339  0.737339  0.287983  1.0
  O  O10  1  0.733296  0.293768  0.739640  1.0
  O  O11  1  0.293768  0.733296  0.739640  1.0
  O  O12  1  0.733296  0.733296  0.739640  1.0
