# generated using pymatgen
data_LuB2Ir3
_symmetry_space_group_name_H-M   'P 1'
_cell_length_a   3.14534935
_cell_length_b   5.44171751
_cell_length_c   5.43882357
_cell_angle_alpha   59.98239697
_cell_angle_beta   90.05597244
_cell_angle_gamma   90.11189625
_symmetry_Int_Tables_number   1
_chemical_formula_structural   LuB2Ir3
_chemical_formula_sum   'Lu1 B2 Ir3'
_cell_volume   80.60511353
_cell_formula_units_Z   1
loop_
 _symmetry_equiv_pos_site_id
 _symmetry_equiv_pos_as_xyz
  1  'x, y, z'
loop_
 _atom_site_type_symbol
 _atom_site_label
 _atom_site_symmetry_multiplicity
 _atom_site_fract_x
 _atom_site_fract_y
 _atom_site_fract_z
 _atom_site_occupancy
  Lu  Lu1  1  0.500000  0.500000  0.000000  1.0
  B  B2  1  0.500000  0.166738  0.666523  1.0
  B  B3  1  0.500000  0.833262  0.333477  1.0
  Ir  Ir4  1  0.000000  0.000000  0.500000  1.0
  Ir  Ir5  1  0.000000  0.500000  0.500000  1.0
  Ir  Ir6  1  0.000000  0.000000  0.000000  1.0
