# generated using pymatgen
data_NbAs2
_symmetry_space_group_name_H-M   'P 1'
_cell_length_a   3.41778120
_cell_length_b   5.02539255
_cell_length_c   7.13142939
_cell_angle_alpha   78.78629896
_cell_angle_beta   76.13541067
_cell_angle_gamma   70.12000855
_symmetry_Int_Tables_number   1
_chemical_formula_structural   NbAs2
_chemical_formula_sum   'Nb2 As4'
_cell_volume   110.97224251
_cell_formula_units_Z   2
loop_
 _symmetry_equiv_pos_site_id
 _symmetry_equiv_pos_as_xyz
  1  'x, y, z'
loop_
 _atom_site_type_symbol
 _atom_site_label
 _atom_site_symmetry_multiplicity
 _atom_site_fract_x
 _atom_site_fract_y
 _atom_site_fract_z
 _atom_site_occupancy
  Nb  Nb1  1  0.156937  0.882182  0.803944  1.0
  Nb  Nb2  1  0.843063  0.117818  0.196056  1.0
  As  As3  1  0.858548  0.754334  0.528570  1.0
  As  As4  1  0.141452  0.245666  0.471430  1.0
  As  As5  1  0.594939  0.703345  0.106777  1.0
  As  As6  1  0.405061  0.296655  0.893223  1.0
