# generated using pymatgen
data_LiWO2
_symmetry_space_group_name_H-M   'P 1'
_cell_length_a   5.24809415
_cell_length_b   5.24809414
_cell_length_c   5.24809406
_cell_angle_alpha   36.21623935
_cell_angle_beta   36.21624063
_cell_angle_gamma   36.21624595
_symmetry_Int_Tables_number   1
_chemical_formula_structural   LiWO2
_chemical_formula_sum   'Li1 W1 O2'
_cell_volume   45.14881920
_cell_formula_units_Z   1
loop_
 _symmetry_equiv_pos_site_id
 _symmetry_equiv_pos_as_xyz
  1  'x, y, z'
loop_
 _atom_site_type_symbol
 _atom_site_label
 _atom_site_symmetry_multiplicity
 _atom_site_fract_x
 _atom_site_fract_y
 _atom_site_fract_z
 _atom_site_occupancy
  Li  Li1  1  0.500002  0.500001  0.499998  1.0
  W  W2  1  0.000000  0.000000  0.000000  1.0
  O  O3  1  0.255915  0.255916  0.255917  1.0
  O  O4  1  0.744085  0.744085  0.744082  1.0
