# generated using pymatgen
data_GeO2
_symmetry_space_group_name_H-M   'P 1'
_cell_length_a   4.76617562
_cell_length_b   4.76617562
_cell_length_c   4.76617562
_cell_angle_alpha   90.00000000
_cell_angle_beta   90.00000000
_cell_angle_gamma   90.00000000
_symmetry_Int_Tables_number   1
_chemical_formula_structural   GeO2
_chemical_formula_sum   'Ge4 O8'
_cell_volume   108.27049503
_cell_formula_units_Z   4
loop_
 _symmetry_equiv_pos_site_id
 _symmetry_equiv_pos_as_xyz
  1  'x, y, z'
loop_
 _atom_site_type_symbol
 _atom_site_label
 _atom_site_symmetry_multiplicity
 _atom_site_fract_x
 _atom_site_fract_y
 _atom_site_fract_z
 _atom_site_occupancy
  Ge  Ge1  1  0.000000  0.500000  0.500000  1.0
  Ge  Ge2  1  0.500000  0.500000  0.000000  1.0
  Ge  Ge3  1  0.500000  0.000000  0.500000  1.0
  Ge  Ge4  1  0.000000  0.000000  0.000000  1.0
  O  O5  1  0.343148  0.156852  0.843148  1.0
  O  O6  1  0.156852  0.843148  0.343148  1.0
  O  O7  1  0.843148  0.343148  0.156852  1.0
  O  O8  1  0.656852  0.656852  0.656852  1.0
  O  O9  1  0.343148  0.343148  0.343148  1.0
  O  O10  1  0.156852  0.656852  0.843148  1.0
  O  O11  1  0.843148  0.156852  0.656852  1.0
  O  O12  1  0.656852  0.843148  0.156852  1.0
