# generated using pymatgen
data_LiAg3
_symmetry_space_group_name_H-M   'P 1'
_cell_length_a   5.05020344
_cell_length_b   5.05020344
_cell_length_c   5.05020344
_cell_angle_alpha   132.11327844
_cell_angle_beta   132.11327844
_cell_angle_gamma   70.05017464
_symmetry_Int_Tables_number   1
_chemical_formula_structural   LiAg3
_chemical_formula_sum   'Li1 Ag3'
_cell_volume   69.48857757
_cell_formula_units_Z   1
loop_
 _symmetry_equiv_pos_site_id
 _symmetry_equiv_pos_as_xyz
  1  'x, y, z'
loop_
 _atom_site_type_symbol
 _atom_site_label
 _atom_site_symmetry_multiplicity
 _atom_site_fract_x
 _atom_site_fract_y
 _atom_site_fract_z
 _atom_site_occupancy
  Li  Li1  1  0.000000  0.000000  0.000000  1.0
  Ag  Ag2  1  0.749999  0.250000  0.499999  1.0
  Ag  Ag3  1  0.250000  0.749999  0.499999  1.0
  Ag  Ag4  1  0.500000  0.500000  0.000000  1.0
