# generated using pymatgen
data_Si
_symmetry_space_group_name_H-M   'P 1'
_cell_length_a   5.77079162
_cell_length_b   5.77079238
_cell_length_c   5.77079169
_cell_angle_alpha   109.80756484
_cell_angle_beta   109.80756063
_cell_angle_gamma   109.80755813
_symmetry_Int_Tables_number   1
_chemical_formula_structural   Si
_chemical_formula_sum   Si8
_cell_volume   146.06829247
_cell_formula_units_Z   8
loop_
 _symmetry_equiv_pos_site_id
 _symmetry_equiv_pos_as_xyz
  1  'x, y, z'
loop_
 _atom_site_type_symbol
 _atom_site_label
 _atom_site_symmetry_multiplicity
 _atom_site_fract_x
 _atom_site_fract_y
 _atom_site_fract_z
 _atom_site_occupancy
  Si  Si1  1  0.018416  0.716624  0.520174  1.0
  Si  Si2  1  0.981584  0.283376  0.479826  1.0
  Si  Si3  1  0.713071  0.713071  0.713071  1.0
  Si  Si4  1  0.283376  0.479826  0.981584  1.0
  Si  Si5  1  0.479826  0.981584  0.283376  1.0
  Si  Si6  1  0.716624  0.520174  0.018416  1.0
  Si  Si7  1  0.286929  0.286929  0.286929  1.0
  Si  Si8  1  0.520174  0.018416  0.716624  1.0
