# generated using pymatgen
data_Ca3Zn
_symmetry_space_group_name_H-M   'P 1'
_cell_length_a   7.22053593
_cell_length_b   7.22053498
_cell_length_c   5.68286319
_cell_angle_alpha   90.00000000
_cell_angle_beta   90.00000000
_cell_angle_gamma   119.99999983
_symmetry_Int_Tables_number   1
_chemical_formula_structural   Ca3Zn
_chemical_formula_sum   'Ca6 Zn2'
_cell_volume   256.58817809
_cell_formula_units_Z   2
loop_
 _symmetry_equiv_pos_site_id
 _symmetry_equiv_pos_as_xyz
  1  'x, y, z'
loop_
 _atom_site_type_symbol
 _atom_site_label
 _atom_site_symmetry_multiplicity
 _atom_site_fract_x
 _atom_site_fract_y
 _atom_site_fract_z
 _atom_site_occupancy
  Ca  Ca1  1  0.653805  0.826903  0.750000  1.0
  Ca  Ca2  1  0.173097  0.346195  0.750000  1.0
  Ca  Ca3  1  0.173097  0.826903  0.750000  1.0
  Ca  Ca4  1  0.826903  0.653805  0.250000  1.0
  Ca  Ca5  1  0.826903  0.173097  0.250000  1.0
  Ca  Ca6  1  0.346195  0.173097  0.250000  1.0
  Zn  Zn7  1  0.666667  0.333333  0.750000  1.0
  Zn  Zn8  1  0.333333  0.666667  0.250000  1.0
