# generated using pymatgen
data_NbNi3
_symmetry_space_group_name_H-M   'P 1'
_cell_length_a   3.63699609
_cell_length_b   3.63699609
_cell_length_c   4.55412106
_cell_angle_alpha   113.53494563
_cell_angle_beta   113.53494563
_cell_angle_gamma   90.00000000
_symmetry_Int_Tables_number   1
_chemical_formula_structural   NbNi3
_chemical_formula_sum   'Nb1 Ni3'
_cell_volume   49.71615168
_cell_formula_units_Z   1
loop_
 _symmetry_equiv_pos_site_id
 _symmetry_equiv_pos_as_xyz
  1  'x, y, z'
loop_
 _atom_site_type_symbol
 _atom_site_label
 _atom_site_symmetry_multiplicity
 _atom_site_fract_x
 _atom_site_fract_y
 _atom_site_fract_z
 _atom_site_occupancy
  Nb  Nb1  1  0.000000  0.000000  0.000000  1.0
  Ni  Ni2  1  0.500000  0.500000  0.000000  1.0
  Ni  Ni3  1  0.250000  0.750000  0.500000  1.0
  Ni  Ni4  1  0.750000  0.250000  0.500000  1.0
