# generated using pymatgen
data_YC2
_symmetry_space_group_name_H-M   'P 1'
_cell_length_a   3.68476275
_cell_length_b   3.68476275
_cell_length_c   4.05388249
_cell_angle_alpha   117.03105097
_cell_angle_beta   117.03105102
_cell_angle_gamma   89.99999987
_symmetry_Int_Tables_number   1
_chemical_formula_structural   YC2
_chemical_formula_sum   'Y1 C2'
_cell_volume   42.16724633
_cell_formula_units_Z   1
loop_
 _symmetry_equiv_pos_site_id
 _symmetry_equiv_pos_as_xyz
  1  'x, y, z'
loop_
 _atom_site_type_symbol
 _atom_site_label
 _atom_site_symmetry_multiplicity
 _atom_site_fract_x
 _atom_site_fract_y
 _atom_site_fract_z
 _atom_site_occupancy
  Y  Y1  1  0.000000  0.000000  0.000000  1.0
  C  C2  1  0.604880  0.604880  0.209759  1.0
  C  C3  1  0.395120  0.395120  0.790241  1.0
