# generated using pymatgen
data_HoAg2
_symmetry_space_group_name_H-M   'P 1'
_cell_length_a   3.74388897
_cell_length_b   3.74388897
_cell_length_c   5.31736507
_cell_angle_alpha   110.61236341
_cell_angle_beta   110.61236346
_cell_angle_gamma   89.99999998
_symmetry_Int_Tables_number   1
_chemical_formula_structural   HoAg2
_chemical_formula_sum   'Ho1 Ag2'
_cell_volume   64.63816524
_cell_formula_units_Z   1
loop_
 _symmetry_equiv_pos_site_id
 _symmetry_equiv_pos_as_xyz
  1  'x, y, z'
loop_
 _atom_site_type_symbol
 _atom_site_label
 _atom_site_symmetry_multiplicity
 _atom_site_fract_x
 _atom_site_fract_y
 _atom_site_fract_z
 _atom_site_occupancy
  Ho  Ho1  1  0.000000  0.000000  0.000000  1.0
  Ag  Ag2  1  0.331143  0.331143  0.662286  1.0
  Ag  Ag3  1  0.668857  0.668857  0.337714  1.0
