# generated using pymatgen
data_LiMg2
_symmetry_space_group_name_H-M   'P 1'
_cell_length_a   3.41987893
_cell_length_b   5.72618715
_cell_length_c   7.13494895
_cell_angle_alpha   71.75042861
_cell_angle_beta   90.03851177
_cell_angle_gamma   107.19729986
_symmetry_Int_Tables_number   1
_chemical_formula_structural   LiMg2
_chemical_formula_sum   'Li2 Mg4'
_cell_volume   126.11016000
_cell_formula_units_Z   2
loop_
 _symmetry_equiv_pos_site_id
 _symmetry_equiv_pos_as_xyz
  1  'x, y, z'
loop_
 _atom_site_type_symbol
 _atom_site_label
 _atom_site_symmetry_multiplicity
 _atom_site_fract_x
 _atom_site_fract_y
 _atom_site_fract_z
 _atom_site_occupancy
  Li  Li1  1  0.697062  0.394076  0.630158  1.0
  Li  Li2  1  0.358606  0.717222  0.759109  1.0
  Mg  Mg3  1  0.015306  0.030550  0.931874  1.0
  Mg  Mg4  1  0.698051  0.396258  0.089265  1.0
  Mg  Mg5  1  0.357259  0.714441  0.298919  1.0
  Mg  Mg6  1  0.040386  0.080788  0.457341  1.0
