# generated using pymatgen
data_ReO2
_symmetry_space_group_name_H-M   'P 1'
_cell_length_a   2.74274742
_cell_length_b   4.92495843
_cell_length_c   4.92495843
_cell_angle_alpha   90.00000000
_cell_angle_beta   90.00000000
_cell_angle_gamma   90.00000000
_symmetry_Int_Tables_number   1
_chemical_formula_structural   ReO2
_chemical_formula_sum   'Re2 O4'
_cell_volume   66.52592984
_cell_formula_units_Z   2
loop_
 _symmetry_equiv_pos_site_id
 _symmetry_equiv_pos_as_xyz
  1  'x, y, z'
loop_
 _atom_site_type_symbol
 _atom_site_label
 _atom_site_symmetry_multiplicity
 _atom_site_fract_x
 _atom_site_fract_y
 _atom_site_fract_z
 _atom_site_occupancy
  Re  Re1  1  0.500000  0.500000  0.500000  1.0
  Re  Re2  1  0.000000  0.000000  0.000000  1.0
  O  O3  1  0.000000  0.717583  0.717583  1.0
  O  O4  1  0.500000  0.782417  0.217583  1.0
  O  O5  1  0.000000  0.282417  0.282417  1.0
  O  O6  1  0.500000  0.217583  0.782417  1.0
