# generated using pymatgen
data_NbAlOs2
_symmetry_space_group_name_H-M   'P 1'
_cell_length_a   4.41369197
_cell_length_b   4.41369197
_cell_length_c   4.41369197
_cell_angle_alpha   60.00000000
_cell_angle_beta   60.00000000
_cell_angle_gamma   60.00000000
_symmetry_Int_Tables_number   1
_chemical_formula_structural   NbAlOs2
_chemical_formula_sum   'Nb1 Al1 Os2'
_cell_volume   60.79824793
_cell_formula_units_Z   1
loop_
 _symmetry_equiv_pos_site_id
 _symmetry_equiv_pos_as_xyz
  1  'x, y, z'
loop_
 _atom_site_type_symbol
 _atom_site_label
 _atom_site_symmetry_multiplicity
 _atom_site_fract_x
 _atom_site_fract_y
 _atom_site_fract_z
 _atom_site_occupancy
  Nb  Nb1  1  0.750000  0.750000  0.750000  1.0
  Al  Al2  1  0.249999  0.249999  0.249999  1.0
  Os  Os3  1  0.000000  0.000000  0.000000  1.0
  Os  Os4  1  0.500000  0.500000  0.500000  1.0
