# generated using pymatgen
data_NaAlO2
_symmetry_space_group_name_H-M   'P 1'
_cell_length_a   5.61809360
_cell_length_b   5.61809360
_cell_length_c   5.61809360
_cell_angle_alpha   29.91242608
_cell_angle_beta   29.91242606
_cell_angle_gamma   29.91242610
_symmetry_Int_Tables_number   1
_chemical_formula_structural   NaAlO2
_chemical_formula_sum   'Na1 Al1 O2'
_cell_volume   39.05475505
_cell_formula_units_Z   1
loop_
 _symmetry_equiv_pos_site_id
 _symmetry_equiv_pos_as_xyz
  1  'x, y, z'
loop_
 _atom_site_type_symbol
 _atom_site_label
 _atom_site_symmetry_multiplicity
 _atom_site_fract_x
 _atom_site_fract_y
 _atom_site_fract_z
 _atom_site_occupancy
  Na  Na1  1  0.000000  0.000000  0.000000  1.0
  Al  Al2  1  0.500000  0.500000  0.500000  1.0
  O  O3  1  0.770492  0.770492  0.770492  1.0
  O  O4  1  0.229508  0.229508  0.229508  1.0
