# generated using pymatgen
data_Ga2IrRh
_symmetry_space_group_name_H-M   'P 1'
_cell_length_a   4.31618575
_cell_length_b   4.31618575
_cell_length_c   4.31618575
_cell_angle_alpha   60.00000000
_cell_angle_beta   60.00000000
_cell_angle_gamma   60.00000000
_symmetry_Int_Tables_number   1
_chemical_formula_structural   Ga2IrRh
_chemical_formula_sum   'Ga2 Ir1 Rh1'
_cell_volume   56.85718866
_cell_formula_units_Z   1
loop_
 _symmetry_equiv_pos_site_id
 _symmetry_equiv_pos_as_xyz
  1  'x, y, z'
loop_
 _atom_site_type_symbol
 _atom_site_label
 _atom_site_symmetry_multiplicity
 _atom_site_fract_x
 _atom_site_fract_y
 _atom_site_fract_z
 _atom_site_occupancy
  Ga  Ga1  1  0.000000  0.000000  0.000000  1.0
  Ga  Ga2  1  0.500001  0.500001  0.500001  1.0
  Ir  Ir3  1  0.249999  0.249999  0.249999  1.0
  Rh  Rh4  1  0.750000  0.750000  0.750000  1.0
