# generated using pymatgen
data_ScTaTc2
_symmetry_space_group_name_H-M   'P 1'
_cell_length_a   4.53761867
_cell_length_b   4.53767290
_cell_length_c   4.53766623
_cell_angle_alpha   60.00001753
_cell_angle_beta   59.99968401
_cell_angle_gamma   59.99982216
_symmetry_Int_Tables_number   1
_chemical_formula_structural   ScTaTc2
_chemical_formula_sum   'Sc1 Ta1 Tc2'
_cell_volume   66.06587165
_cell_formula_units_Z   1
loop_
 _symmetry_equiv_pos_site_id
 _symmetry_equiv_pos_as_xyz
  1  'x, y, z'
loop_
 _atom_site_type_symbol
 _atom_site_label
 _atom_site_symmetry_multiplicity
 _atom_site_fract_x
 _atom_site_fract_y
 _atom_site_fract_z
 _atom_site_occupancy
  Sc  Sc1  1  0.249998  0.250001  0.250000  1.0
  Ta  Ta2  1  0.750000  0.749999  0.749999  1.0
  Tc  Tc3  1  0.000000  0.000000  0.000000  1.0
  Tc  Tc4  1  0.500001  0.500000  0.500000  1.0
