# generated using pymatgen
data_LiFePd2
_symmetry_space_group_name_H-M   'P 1'
_cell_length_a   4.26795247
_cell_length_b   4.26793376
_cell_length_c   4.26793859
_cell_angle_alpha   59.99962167
_cell_angle_beta   60.00001381
_cell_angle_gamma   60.00003612
_symmetry_Int_Tables_number   1
_chemical_formula_structural   LiFePd2
_chemical_formula_sum   'Li1 Fe1 Pd2'
_cell_volume   54.97172064
_cell_formula_units_Z   1
loop_
 _symmetry_equiv_pos_site_id
 _symmetry_equiv_pos_as_xyz
  1  'x, y, z'
loop_
 _atom_site_type_symbol
 _atom_site_label
 _atom_site_symmetry_multiplicity
 _atom_site_fract_x
 _atom_site_fract_y
 _atom_site_fract_z
 _atom_site_occupancy
  Li  Li1  1  0.749999  0.750007  0.749995  1.0
  Fe  Fe2  1  0.250000  0.249995  0.250015  1.0
  Pd  Pd3  1  0.000000  0.000000  0.999993  1.0
  Pd  Pd4  1  0.500001  0.499998  0.499998  1.0
