# generated using pymatgen
data_TiPt3
_symmetry_space_group_name_H-M   'P 1'
_cell_length_a   5.59245889
_cell_length_b   5.59245844
_cell_length_c   15.95682056
_cell_angle_alpha   90.00000000
_cell_angle_beta   90.00000000
_cell_angle_gamma   120.00000261
_symmetry_Int_Tables_number   1
_chemical_formula_structural   TiPt3
_chemical_formula_sum   'Ti7 Pt21'
_cell_volume   432.19779533
_cell_formula_units_Z   7
loop_
 _symmetry_equiv_pos_site_id
 _symmetry_equiv_pos_as_xyz
  1  'x, y, z'
loop_
 _atom_site_type_symbol
 _atom_site_label
 _atom_site_symmetry_multiplicity
 _atom_site_fract_x
 _atom_site_fract_y
 _atom_site_fract_z
 _atom_site_occupancy
  Ti  Ti1  1  0.000000  0.000000  0.719223  1.0
  Ti  Ti2  1  0.666667  0.333333  0.856585  1.0
  Ti  Ti3  1  0.333333  0.666667  0.143415  1.0
  Ti  Ti4  1  0.000000  0.000000  0.280777  1.0
  Ti  Ti5  1  0.666667  0.333333  0.429472  1.0
  Ti  Ti6  1  0.000000  0.000000  0.000000  1.0
  Ti  Ti7  1  0.333333  0.666667  0.570528  1.0
  Pt  Pt8  1  0.833190  0.666380  0.571056  1.0
  Pt  Pt9  1  0.333620  0.166810  0.571056  1.0
  Pt  Pt10  1  0.166608  0.333216  0.856938  1.0
  Pt  Pt11  1  0.166810  0.333620  0.428944  1.0
  Pt  Pt12  1  0.166810  0.833190  0.428944  1.0
  Pt  Pt13  1  0.500483  0.000965  0.713587  1.0
  Pt  Pt14  1  0.666380  0.833190  0.428944  1.0
  Pt  Pt15  1  0.166608  0.833392  0.856938  1.0
  Pt  Pt16  1  0.666784  0.833392  0.856938  1.0
  Pt  Pt17  1  0.833392  0.166608  0.143062  1.0
  Pt  Pt18  1  0.833190  0.166810  0.571056  1.0
  Pt  Pt19  1  0.500483  0.499517  0.713587  1.0
  Pt  Pt20  1  0.333216  0.166608  0.143062  1.0
  Pt  Pt21  1  0.833392  0.666784  0.143062  1.0
  Pt  Pt22  1  0.499517  0.500483  0.286413  1.0
  Pt  Pt23  1  0.499517  0.999035  0.286413  1.0
  Pt  Pt24  1  0.500000  0.000000  0.000000  1.0
  Pt  Pt25  1  0.000965  0.500483  0.286413  1.0
  Pt  Pt26  1  0.999035  0.499517  0.713587  1.0
  Pt  Pt27  1  0.500000  0.500000  0.000000  1.0
  Pt  Pt28  1  0.000000  0.500000  0.000000  1.0
