# generated using pymatgen
data_Al2O3
_symmetry_space_group_name_H-M   'P 1'
_cell_length_a   16.85338081
_cell_length_b   5.65743858
_cell_length_c   5.65743507
_cell_angle_alpha   90.05237393
_cell_angle_beta   60.44602956
_cell_angle_gamma   59.14324996
_symmetry_Int_Tables_number   1
_chemical_formula_structural   Al2O3
_chemical_formula_sum   'Al16 O24'
_cell_volume   378.81991027
_cell_formula_units_Z   8
loop_
 _symmetry_equiv_pos_site_id
 _symmetry_equiv_pos_as_xyz
  1  'x, y, z'
loop_
 _atom_site_type_symbol
 _atom_site_label
 _atom_site_symmetry_multiplicity
 _atom_site_fract_x
 _atom_site_fract_y
 _atom_site_fract_z
 _atom_site_occupancy
  Al  Al1  1  0.000000  0.001038  0.001038  1.0
  Al  Al2  1  0.091924  0.344113  0.105901  1.0
  Al  Al3  1  0.090082  0.347086  0.615872  1.0
  Al  Al4  1  0.332075  0.018398  0.006219  1.0
  Al  Al5  1  0.167925  0.731602  0.243781  1.0
  Al  Al6  1  0.250000  0.375000  0.625000  1.0
  Al  Al7  1  0.408076  0.405887  0.144099  1.0
  Al  Al8  1  0.409918  0.402914  0.634128  1.0
  Al  Al9  1  0.667925  0.002444  0.014623  1.0
  Al  Al10  1  0.500000  0.748962  0.248962  1.0
  Al  Al11  1  0.591924  0.368326  0.630114  1.0
  Al  Al12  1  0.750000  0.375000  0.125000  1.0
  Al  Al13  1  0.590082  0.863882  0.632668  1.0
  Al  Al14  1  0.832075  0.747556  0.235377  1.0
  Al  Al15  1  0.908076  0.381674  0.619886  1.0
  Al  Al16  1  0.909918  0.886118  0.617332  1.0
  O  O17  1  0.080882  0.136900  0.376212  1.0
  O  O18  1  0.073458  0.160154  0.887258  1.0
  O  O19  1  0.074921  0.610841  0.384922  1.0
  O  O20  1  0.244844  0.151997  0.387992  1.0
  O  O21  1  0.086395  0.600479  0.867593  1.0
  O  O22  1  0.254581  0.597753  0.370779  1.0
  O  O23  1  0.245419  0.152247  0.879221  1.0
  O  O24  1  0.413605  0.149521  0.382407  1.0
  O  O25  1  0.255156  0.598003  0.862008  1.0
  O  O26  1  0.425079  0.139159  0.865078  1.0
  O  O27  1  0.426542  0.589846  0.362742  1.0
  O  O28  1  0.574921  0.140317  0.414397  1.0
  O  O29  1  0.419118  0.613100  0.873788  1.0
  O  O30  1  0.586395  0.623222  0.390335  1.0
  O  O31  1  0.580882  0.131141  0.870453  1.0
  O  O32  1  0.745419  0.134523  0.361496  1.0
  O  O33  1  0.573458  0.642367  0.869470  1.0
  O  O34  1  0.755157  0.122523  0.886527  1.0
  O  O35  1  0.744843  0.627477  0.363473  1.0
  O  O36  1  0.926542  0.107633  0.380530  1.0
  O  O37  1  0.754581  0.615477  0.888504  1.0
  O  O38  1  0.919118  0.618859  0.379547  1.0
  O  O39  1  0.913605  0.126778  0.859665  1.0
  O  O40  1  0.925079  0.609683  0.835603  1.0
