# generated using pymatgen
data_WN2
_symmetry_space_group_name_H-M   'P 1'
_cell_length_a   5.88918000
_cell_length_b   8.13412706
_cell_length_c   6.00730505
_cell_angle_alpha   90.00000000
_cell_angle_beta   90.00000000
_cell_angle_gamma   90.00000000
_symmetry_Int_Tables_number   1
_chemical_formula_structural   WN2
_chemical_formula_sum   'W4 N8'
_cell_volume   287.76996668
_cell_formula_units_Z   4
loop_
 _symmetry_equiv_pos_site_id
 _symmetry_equiv_pos_as_xyz
  1  'x, y, z'
loop_
 _atom_site_type_symbol
 _atom_site_label
 _atom_site_symmetry_multiplicity
 _atom_site_fract_x
 _atom_site_fract_y
 _atom_site_fract_z
 _atom_site_occupancy
  W  W1  1  0.051451  0.124253  0.374146  1.0
  W  W2  1  0.448549  0.624253  0.874146  1.0
  W  W3  1  0.551451  0.375747  0.374146  1.0
  W  W4  1  0.948549  0.875747  0.874146  1.0
  N  N5  1  0.010231  0.028120  0.096046  1.0
  N  N6  1  0.152114  0.702258  0.904808  1.0
  N  N7  1  0.347886  0.202258  0.404808  1.0
  N  N8  1  0.489769  0.528120  0.596046  1.0
  N  N9  1  0.652114  0.797742  0.904808  1.0
  N  N10  1  0.510231  0.471880  0.096046  1.0
  N  N11  1  0.989769  0.971880  0.596046  1.0
  N  N12  1  0.847886  0.297742  0.404808  1.0
