# generated using pymatgen
data_Hf3SnO8
_symmetry_space_group_name_H-M   'P 1'
_cell_length_a   4.90778782
_cell_length_b   5.77872049
_cell_length_c   5.25148379
_cell_angle_alpha   90.00000000
_cell_angle_beta   90.37266807
_cell_angle_gamma   90.00000000
_symmetry_Int_Tables_number   1
_chemical_formula_structural   Hf3SnO8
_chemical_formula_sum   'Hf3 Sn1 O8'
_cell_volume   148.93278465
_cell_formula_units_Z   1
loop_
 _symmetry_equiv_pos_site_id
 _symmetry_equiv_pos_as_xyz
  1  'x, y, z'
loop_
 _atom_site_type_symbol
 _atom_site_label
 _atom_site_symmetry_multiplicity
 _atom_site_fract_x
 _atom_site_fract_y
 _atom_site_fract_z
 _atom_site_occupancy
  Hf  Hf1  1  0.000000  0.819746  0.750000  1.0
  Hf  Hf2  1  0.500000  0.321835  0.750000  1.0
  Hf  Hf3  1  0.500000  0.675181  0.250000  1.0
  Sn  Sn4  1  0.000000  0.171222  0.250000  1.0
  O  O5  1  0.225604  0.108848  0.921327  1.0
  O  O6  1  0.226749  0.893431  0.424798  1.0
  O  O7  1  0.278586  0.608611  0.920501  1.0
  O  O8  1  0.271997  0.395119  0.421308  1.0
  O  O9  1  0.728003  0.395119  0.078692  1.0
  O  O10  1  0.721414  0.608611  0.579499  1.0
  O  O11  1  0.774396  0.108848  0.578673  1.0
  O  O12  1  0.773251  0.893431  0.075202  1.0
