# generated using pymatgen
data_W(OF)2
_symmetry_space_group_name_H-M   'P 1'
_cell_length_a   7.72072168
_cell_length_b   3.88852948
_cell_length_c   6.60865776
_cell_angle_alpha   90.00000000
_cell_angle_beta   90.00000000
_cell_angle_gamma   90.00000000
_symmetry_Int_Tables_number   1
_chemical_formula_structural   W(OF)2
_chemical_formula_sum   'W2 O4 F4'
_cell_volume   198.40680094
_cell_formula_units_Z   2
loop_
 _symmetry_equiv_pos_site_id
 _symmetry_equiv_pos_as_xyz
  1  'x, y, z'
loop_
 _atom_site_type_symbol
 _atom_site_label
 _atom_site_symmetry_multiplicity
 _atom_site_fract_x
 _atom_site_fract_y
 _atom_site_fract_z
 _atom_site_occupancy
  W  W1  1  0.022262  0.961871  0.000000  1.0
  W  W2  1  0.522262  0.038129  0.000000  1.0
  O  O3  1  0.031705  0.491777  0.000000  1.0
  O  O4  1  0.283858  0.002882  0.000000  1.0
  O  O5  1  0.531705  0.508223  0.000000  1.0
  O  O6  1  0.783858  0.997118  0.000000  1.0
  F  F7  1  0.042527  0.004106  0.284406  1.0
  F  F8  1  0.042527  0.004106  0.715594  1.0
  F  F9  1  0.542527  0.995894  0.284406  1.0
  F  F10  1  0.542527  0.995894  0.715594  1.0
