# generated using pymatgen
data_MnAl2O4
_symmetry_space_group_name_H-M   'P 1'
_cell_length_a   5.87327634
_cell_length_b   5.87330216
_cell_length_c   5.87327660
_cell_angle_alpha   119.99985091
_cell_angle_beta   90.00000000
_cell_angle_gamma   60.00014543
_symmetry_Int_Tables_number   1
_chemical_formula_structural   MnAl2O4
_chemical_formula_sum   'Mn2 Al4 O8'
_cell_volume   143.26172268
_cell_formula_units_Z   2
loop_
 _symmetry_equiv_pos_site_id
 _symmetry_equiv_pos_as_xyz
  1  'x, y, z'
loop_
 _atom_site_type_symbol
 _atom_site_label
 _atom_site_symmetry_multiplicity
 _atom_site_fract_x
 _atom_site_fract_y
 _atom_site_fract_z
 _atom_site_occupancy
  Mn  Mn1  1  0.000000  0.000000  0.000000  1.0
  Mn  Mn2  1  0.750000  0.500000  0.750000  1.0
  Al  Al3  1  0.375000  0.250000  0.375000  1.0
  Al  Al4  1  0.375000  0.250000  0.875000  1.0
  Al  Al5  1  0.375000  0.750000  0.375000  1.0
  Al  Al6  1  0.875000  0.750000  0.375000  1.0
  O  O7  1  0.141699  0.283408  0.141703  1.0
  O  O8  1  0.175106  0.216592  0.608297  1.0
  O  O9  1  0.141703  0.716592  0.574894  1.0
  O  O10  1  0.141703  0.716592  0.141699  1.0
  O  O11  1  0.608301  0.216592  0.608297  1.0
  O  O12  1  0.574894  0.283408  0.141703  1.0
  O  O13  1  0.608297  0.783408  0.608301  1.0
  O  O14  1  0.608297  0.783408  0.175106  1.0
