# generated using pymatgen
data_MgO
_symmetry_space_group_name_H-M   'P 1'
_cell_length_a   3.29264091
_cell_length_b   3.29264144
_cell_length_c   15.67592858
_cell_angle_alpha   90.00060510
_cell_angle_beta   89.99940200
_cell_angle_gamma   120.00334431
_symmetry_Int_Tables_number   1
_chemical_formula_structural   MgO
_chemical_formula_sum   'Mg6 O6'
_cell_volume   147.17636789
_cell_formula_units_Z   6
loop_
 _symmetry_equiv_pos_site_id
 _symmetry_equiv_pos_as_xyz
  1  'x, y, z'
loop_
 _atom_site_type_symbol
 _atom_site_label
 _atom_site_symmetry_multiplicity
 _atom_site_fract_x
 _atom_site_fract_y
 _atom_site_fract_z
 _atom_site_occupancy
  Mg  Mg1  1  0.333240  0.666769  0.351606  1.0
  Mg  Mg2  1  0.333290  0.666711  0.021456  1.0
  Mg  Mg3  1  0.999900  0.000103  0.186527  1.0
  Mg  Mg4  1  0.999956  0.000045  0.517590  1.0
  Mg  Mg5  1  0.000102  0.999900  0.853148  1.0
  Mg  Mg6  1  0.666813  0.333183  0.686110  1.0
  O  O7  1  0.333226  0.666771  0.148632  1.0
  O  O8  1  0.333276  0.666723  0.478872  1.0
  O  O9  1  0.999970  0.000029  0.982065  1.0
  O  O10  1  0.999908  0.000089  0.313622  1.0
  O  O11  1  0.000136  0.999861  0.646357  1.0
  O  O12  1  0.666781  0.333218  0.813986  1.0
