# generated using pymatgen
data_Li2FeF4
_symmetry_space_group_name_H-M   'P 1'
_cell_length_a   4.88630250
_cell_length_b   5.42164705
_cell_length_c   4.88630250
_cell_angle_alpha   63.21595451
_cell_angle_beta   90.00000000
_cell_angle_gamma   116.78404549
_symmetry_Int_Tables_number   1
_chemical_formula_structural   Li2FeF4
_chemical_formula_sum   'Li2 Fe1 F4'
_cell_volume   99.75543278
_cell_formula_units_Z   1
loop_
 _symmetry_equiv_pos_site_id
 _symmetry_equiv_pos_as_xyz
  1  'x, y, z'
loop_
 _atom_site_type_symbol
 _atom_site_label
 _atom_site_symmetry_multiplicity
 _atom_site_fract_x
 _atom_site_fract_y
 _atom_site_fract_z
 _atom_site_occupancy
  Li  Li1  1  0.500000  0.000000  0.500000  1.0
  Li  Li2  1  0.750000  0.500000  0.750000  1.0
  Fe  Fe3  1  0.000000  0.000000  0.000000  1.0
  F  F4  1  0.402675  0.215591  0.111136  1.0
  F  F5  1  0.673273  0.784409  0.402675  1.0
  F  F6  1  0.812916  0.215591  0.673273  1.0
  F  F7  1  0.111136  0.784409  0.812916  1.0
