# generated using pymatgen
data_AlAsO4
_symmetry_space_group_name_H-M   'P 1'
_cell_length_a   5.28298046
_cell_length_b   5.28298046
_cell_length_c   5.28298045
_cell_angle_alpha   87.57856837
_cell_angle_beta   121.40772347
_cell_angle_gamma   121.40772362
_symmetry_Int_Tables_number   1
_chemical_formula_structural   AlAsO4
_chemical_formula_sum   'Al1 As1 O4'
_cell_volume   101.94367390
_cell_formula_units_Z   1
loop_
 _symmetry_equiv_pos_site_id
 _symmetry_equiv_pos_as_xyz
  1  'x, y, z'
loop_
 _atom_site_type_symbol
 _atom_site_label
 _atom_site_symmetry_multiplicity
 _atom_site_fract_x
 _atom_site_fract_y
 _atom_site_fract_z
 _atom_site_occupancy
  Al  Al1  1  0.000000  0.000000  0.000000  1.0
  As  As2  1  0.500000  0.250000  0.750000  1.0
  O  O3  1  0.615794  0.998420  0.868138  1.0
  O  O4  1  0.130281  0.131862  0.747656  1.0
  O  O5  1  0.384206  0.252344  0.382625  1.0
  O  O6  1  0.869719  0.617375  0.001580  1.0
