# generated using pymatgen
data_AlAgS2
_symmetry_space_group_name_H-M   'P 1'
_cell_length_a   3.54026373
_cell_length_b   3.54026372
_cell_length_c   6.89818328
_cell_angle_alpha   90.00000000
_cell_angle_beta   90.00000000
_cell_angle_gamma   119.99999998
_symmetry_Int_Tables_number   1
_chemical_formula_structural   AlAgS2
_chemical_formula_sum   'Al1 Ag1 S2'
_cell_volume   74.87495789
_cell_formula_units_Z   1
loop_
 _symmetry_equiv_pos_site_id
 _symmetry_equiv_pos_as_xyz
  1  'x, y, z'
loop_
 _atom_site_type_symbol
 _atom_site_label
 _atom_site_symmetry_multiplicity
 _atom_site_fract_x
 _atom_site_fract_y
 _atom_site_fract_z
 _atom_site_occupancy
  Al  Al1  1  0.000000  0.000000  0.008287  1.0
  Ag  Ag2  1  0.333333  0.666667  0.543216  1.0
  S  S3  1  0.333333  0.666667  0.188699  1.0
  S  S4  1  0.666667  0.333333  0.804799  1.0
