# generated using pymatgen
data_Al2ZnTe4
_symmetry_space_group_name_H-M   'P 1'
_cell_length_a   6.09191787
_cell_length_b   6.09191788
_cell_length_c   7.37665785
_cell_angle_alpha   114.38830649
_cell_angle_beta   114.38830655
_cell_angle_gamma   89.99999993
_symmetry_Int_Tables_number   1
_chemical_formula_structural   Al2ZnTe4
_chemical_formula_sum   'Al2 Zn1 Te4'
_cell_volume   222.23337543
_cell_formula_units_Z   1
loop_
 _symmetry_equiv_pos_site_id
 _symmetry_equiv_pos_as_xyz
  1  'x, y, z'
loop_
 _atom_site_type_symbol
 _atom_site_label
 _atom_site_symmetry_multiplicity
 _atom_site_fract_x
 _atom_site_fract_y
 _atom_site_fract_z
 _atom_site_occupancy
  Al  Al1  1  0.250000  0.750000  0.500000  1.0
  Al  Al2  1  0.500000  0.500000  0.000000  1.0
  Zn  Zn3  1  0.000000  0.000000  0.000000  1.0
  Te  Te4  1  0.397700  0.373188  0.265671  1.0
  Te  Te5  1  0.107517  0.602300  0.734329  1.0
  Te  Te6  1  0.626812  0.132029  0.734329  1.0
  Te  Te7  1  0.867971  0.892483  0.265671  1.0
