# generated using pymatgen
data_VIr
_symmetry_space_group_name_H-M   'P 1'
_cell_length_a   4.06332134
_cell_length_b   5.25571293
_cell_length_c   5.25571293
_cell_angle_alpha   84.11415978
_cell_angle_beta   90.00000000
_cell_angle_gamma   90.00000000
_symmetry_Int_Tables_number   1
_chemical_formula_structural   VIr
_chemical_formula_sum   'V4 Ir4'
_cell_volume   111.64746496
_cell_formula_units_Z   4
loop_
 _symmetry_equiv_pos_site_id
 _symmetry_equiv_pos_as_xyz
  1  'x, y, z'
loop_
 _atom_site_type_symbol
 _atom_site_label
 _atom_site_symmetry_multiplicity
 _atom_site_fract_x
 _atom_site_fract_y
 _atom_site_fract_z
 _atom_site_occupancy
  V  V1  1  0.000000  0.025096  0.025096  1.0
  V  V2  1  0.000000  0.451053  0.451053  1.0
  V  V3  1  0.500000  0.212429  0.212429  1.0
  V  V4  1  0.500000  0.786505  0.786505  1.0
  Ir  Ir5  1  0.000000  0.962268  0.523294  1.0
  Ir  Ir6  1  0.000000  0.523294  0.962268  1.0
  Ir  Ir7  1  0.500000  0.275143  0.714215  1.0
  Ir  Ir8  1  0.500000  0.714215  0.275143  1.0
