# generated using pymatgen
data_TiNiO3
_symmetry_space_group_name_H-M   'P 1'
_cell_length_a   5.07517961
_cell_length_b   5.50930415
_cell_length_c   5.07517928
_cell_angle_alpha   117.42588097
_cell_angle_beta   59.99999783
_cell_angle_gamma   117.42588162
_symmetry_Int_Tables_number   1
_chemical_formula_structural   TiNiO3
_chemical_formula_sum   'Ti2 Ni2 O6'
_cell_volume   104.07079952
_cell_formula_units_Z   2
loop_
 _symmetry_equiv_pos_site_id
 _symmetry_equiv_pos_as_xyz
  1  'x, y, z'
loop_
 _atom_site_type_symbol
 _atom_site_label
 _atom_site_symmetry_multiplicity
 _atom_site_fract_x
 _atom_site_fract_y
 _atom_site_fract_z
 _atom_site_occupancy
  Ti  Ti1  1  0.146425  0.439275  0.146425  1.0
  Ti  Ti2  1  0.646343  0.939031  0.646343  1.0
  Ni  Ni3  1  0.354279  0.062837  0.354279  1.0
  Ni  Ni4  1  0.854302  0.562908  0.854302  1.0
  O  O5  1  0.050877  0.260605  0.431866  1.0
  O  O6  1  0.550894  0.760645  0.277929  1.0
  O  O7  1  0.277929  0.760645  0.931823  1.0
  O  O8  1  0.777860  0.260605  0.050877  1.0
  O  O9  1  0.431866  0.260605  0.777860  1.0
  O  O10  1  0.931823  0.760645  0.550894  1.0
