# generated using pymatgen
data_Na2CoP2O7
_symmetry_space_group_name_H-M   'P 1'
_cell_length_a   5.14721894
_cell_length_b   7.86985107
_cell_length_c   7.86985107
_cell_angle_alpha   90.00000000
_cell_angle_beta   90.00000000
_cell_angle_gamma   90.00000000
_symmetry_Int_Tables_number   1
_chemical_formula_structural   Na2CoP2O7
_chemical_formula_sum   'Na4 Co2 P4 O14'
_cell_volume   318.79071898
_cell_formula_units_Z   2
loop_
 _symmetry_equiv_pos_site_id
 _symmetry_equiv_pos_as_xyz
  1  'x, y, z'
loop_
 _atom_site_type_symbol
 _atom_site_label
 _atom_site_symmetry_multiplicity
 _atom_site_fract_x
 _atom_site_fract_y
 _atom_site_fract_z
 _atom_site_occupancy
  Na  Na1  1  0.490613  0.832894  0.332894  1.0
  Na  Na2  1  0.509387  0.667106  0.832894  1.0
  Na  Na3  1  0.490613  0.167106  0.667106  1.0
  Na  Na4  1  0.509387  0.332894  0.167106  1.0
  Co  Co5  1  0.000000  0.500000  0.500000  1.0
  Co  Co6  1  0.000000  0.000000  0.000000  1.0
  P  P7  1  0.071556  0.638506  0.138506  1.0
  P  P8  1  0.928444  0.861494  0.638506  1.0
  P  P9  1  0.071556  0.361494  0.861494  1.0
  P  P10  1  0.928444  0.138506  0.361494  1.0
  O  O11  1  0.817127  0.000000  0.500000  1.0
  O  O12  1  0.182873  0.500000  0.000000  1.0
  O  O13  1  0.778974  0.639718  0.139718  1.0
  O  O14  1  0.221026  0.860282  0.639718  1.0
  O  O15  1  0.778974  0.360282  0.860282  1.0
  O  O16  1  0.221026  0.139718  0.360282  1.0
  O  O17  1  0.793188  0.304301  0.419911  1.0
  O  O18  1  0.206812  0.195699  0.919911  1.0
  O  O19  1  0.793188  0.695699  0.580089  1.0
  O  O20  1  0.206812  0.804301  0.080089  1.0
  O  O21  1  0.206812  0.580089  0.304301  1.0
  O  O22  1  0.793188  0.919911  0.804301  1.0
  O  O23  1  0.206812  0.419911  0.695699  1.0
  O  O24  1  0.793188  0.080089  0.195699  1.0
