# generated using pymatgen
data_KZnN
_symmetry_space_group_name_H-M   'P 1'
_cell_length_a   10.38175800
_cell_length_b   3.54920600
_cell_length_c   6.71126700
_cell_angle_alpha   90.00000000
_cell_angle_beta   90.00000000
_cell_angle_gamma   90.00000000
_symmetry_Int_Tables_number   1
_chemical_formula_structural   KZnN
_chemical_formula_sum   'K4 Zn4 N4'
_cell_volume   247.29004028
_cell_formula_units_Z   4
loop_
 _symmetry_equiv_pos_site_id
 _symmetry_equiv_pos_as_xyz
  1  'x, y, z'
loop_
 _atom_site_type_symbol
 _atom_site_label
 _atom_site_symmetry_multiplicity
 _atom_site_fract_x
 _atom_site_fract_y
 _atom_site_fract_z
 _atom_site_occupancy
  K  K1  1  0.660445  0.250000  0.046054  1.0
  K  K2  1  0.160445  0.250000  0.453946  1.0
  K  K3  1  0.339555  0.750000  0.953946  1.0
  K  K4  1  0.839555  0.750000  0.546054  1.0
  Zn  Zn5  1  0.548225  0.250000  0.619215  1.0
  Zn  Zn6  1  0.048225  0.250000  0.880785  1.0
  Zn  Zn7  1  0.451775  0.750000  0.380785  1.0
  Zn  Zn8  1  0.951775  0.750000  0.119215  1.0
  N  N9  1  0.923984  0.250000  0.210237  1.0
  N  N10  1  0.423984  0.250000  0.289763  1.0
  N  N11  1  0.076016  0.750000  0.789763  1.0
  N  N12  1  0.576016  0.750000  0.710237  1.0
