# generated using pymatgen
data_KGe2N3
_symmetry_space_group_name_H-M   'P 1'
_cell_length_a   6.02639451
_cell_length_b   10.10559144
_cell_length_c   5.32150629
_cell_angle_alpha   90.00000000
_cell_angle_beta   90.00000000
_cell_angle_gamma   90.00000000
_symmetry_Int_Tables_number   1
_chemical_formula_structural   KGe2N3
_chemical_formula_sum   'K4 Ge8 N12'
_cell_volume   324.08122720
_cell_formula_units_Z   4
loop_
 _symmetry_equiv_pos_site_id
 _symmetry_equiv_pos_as_xyz
  1  'x, y, z'
loop_
 _atom_site_type_symbol
 _atom_site_label
 _atom_site_symmetry_multiplicity
 _atom_site_fract_x
 _atom_site_fract_y
 _atom_site_fract_z
 _atom_site_occupancy
  K  K1  1  0.345071  0.000000  0.526267  1.0
  K  K2  1  0.654929  0.000000  0.026267  1.0
  K  K3  1  0.845071  0.500000  0.526267  1.0
  K  K4  1  0.154929  0.500000  0.026267  1.0
  Ge  Ge5  1  0.356176  0.672932  0.504592  1.0
  Ge  Ge6  1  0.356176  0.327068  0.504592  1.0
  Ge  Ge7  1  0.643824  0.327068  0.004592  1.0
  Ge  Ge8  1  0.643824  0.672932  0.004592  1.0
  Ge  Ge9  1  0.856176  0.172932  0.504592  1.0
  Ge  Ge10  1  0.856176  0.827068  0.504592  1.0
  Ge  Ge11  1  0.143824  0.827068  0.004592  1.0
  Ge  Ge12  1  0.143824  0.172932  0.004592  1.0
  N  N13  1  0.381525  0.734655  0.167755  1.0
  N  N14  1  0.381525  0.265345  0.167755  1.0
  N  N15  1  0.618475  0.265345  0.667755  1.0
  N  N16  1  0.618475  0.734655  0.667755  1.0
  N  N17  1  0.205884  0.000000  0.041039  1.0
  N  N18  1  0.794116  0.000000  0.541039  1.0
  N  N19  1  0.881525  0.234655  0.167755  1.0
  N  N20  1  0.881525  0.765345  0.167755  1.0
  N  N21  1  0.118475  0.765345  0.667755  1.0
  N  N22  1  0.118475  0.234655  0.667755  1.0
  N  N23  1  0.705884  0.500000  0.041039  1.0
  N  N24  1  0.294116  0.500000  0.541039  1.0
