# generated using pymatgen
data_ZnSnN2
_symmetry_space_group_name_H-M   'P 1'
_cell_length_a   5.91144400
_cell_length_b   6.81459700
_cell_length_c   5.54032800
_cell_angle_alpha   90.00000000
_cell_angle_beta   90.00000000
_cell_angle_gamma   90.00000000
_symmetry_Int_Tables_number   1
_chemical_formula_structural   ZnSnN2
_chemical_formula_sum   'Zn4 Sn4 N8'
_cell_volume   223.18717454
_cell_formula_units_Z   4
loop_
 _symmetry_equiv_pos_site_id
 _symmetry_equiv_pos_as_xyz
  1  'x, y, z'
loop_
 _atom_site_type_symbol
 _atom_site_label
 _atom_site_symmetry_multiplicity
 _atom_site_fract_x
 _atom_site_fract_y
 _atom_site_fract_z
 _atom_site_occupancy
  Zn  Zn1  1  0.582928  0.874985  0.998790  1.0
  Zn  Zn2  1  0.417072  0.125015  0.498790  1.0
  Zn  Zn3  1  0.917072  0.374985  0.498790  1.0
  Zn  Zn4  1  0.082928  0.625015  0.998790  1.0
  Sn  Sn5  1  0.587280  0.374995  0.999293  1.0
  Sn  Sn6  1  0.412720  0.625005  0.499293  1.0
  Sn  Sn7  1  0.912720  0.874995  0.499293  1.0
  Sn  Sn8  1  0.087280  0.125005  0.999293  1.0
  N  N9  1  0.582262  0.374351  0.378062  1.0
  N  N10  1  0.417738  0.625649  0.878062  1.0
  N  N11  1  0.917738  0.874351  0.878062  1.0
  N  N12  1  0.082262  0.125649  0.378062  1.0
  N  N13  1  0.580560  0.875751  0.373855  1.0
  N  N14  1  0.419440  0.124249  0.873855  1.0
  N  N15  1  0.919440  0.375751  0.873855  1.0
  N  N16  1  0.080560  0.624249  0.373855  1.0
