# generated using pymatgen
data_V5P3N
_symmetry_space_group_name_H-M   'P 1'
_cell_length_a   6.84816925
_cell_length_b   6.84816925
_cell_length_c   5.12748779
_cell_angle_alpha   90.00000000
_cell_angle_beta   90.00000000
_cell_angle_gamma   119.99999996
_symmetry_Int_Tables_number   1
_chemical_formula_structural   V5P3N
_chemical_formula_sum   'V10 P6 N2'
_cell_volume   208.24962939
_cell_formula_units_Z   2
loop_
 _symmetry_equiv_pos_site_id
 _symmetry_equiv_pos_as_xyz
  1  'x, y, z'
loop_
 _atom_site_type_symbol
 _atom_site_label
 _atom_site_symmetry_multiplicity
 _atom_site_fract_x
 _atom_site_fract_y
 _atom_site_fract_z
 _atom_site_occupancy
  V  V1  1  0.768683  0.768683  0.250000  1.0
  V  V2  1  0.768683  0.000000  0.750000  1.0
  V  V3  1  0.000000  0.231317  0.250000  1.0
  V  V4  1  0.000000  0.768683  0.750000  1.0
  V  V5  1  0.231317  0.231317  0.750000  1.0
  V  V6  1  0.231317  0.000000  0.250000  1.0
  V  V7  1  0.333333  0.666667  0.500000  1.0
  V  V8  1  0.666667  0.333333  0.000000  1.0
  V  V9  1  0.666667  0.333333  0.500000  1.0
  V  V10  1  0.333333  0.666667  0.000000  1.0
  P  P11  1  0.000000  0.595357  0.250000  1.0
  P  P12  1  0.000000  0.404643  0.750000  1.0
  P  P13  1  0.595357  0.595357  0.750000  1.0
  P  P14  1  0.595357  0.000000  0.250000  1.0
  P  P15  1  0.404643  0.404643  0.250000  1.0
  P  P16  1  0.404643  0.000000  0.750000  1.0
  N  N17  1  0.000000  0.000000  0.000000  1.0
  N  N18  1  0.000000  0.000000  0.500000  1.0
