# generated using pymatgen
data_KNd3
_symmetry_space_group_name_H-M   'P 1'
_cell_length_a   6.67629496
_cell_length_b   6.67629496
_cell_length_c   6.67629496
_cell_angle_alpha   132.92617455
_cell_angle_beta   132.92617455
_cell_angle_gamma   68.77011003
_symmetry_Int_Tables_number   1
_chemical_formula_structural   KNd3
_chemical_formula_sum   'K1 Nd3'
_cell_volume   156.65453346
_cell_formula_units_Z   1
loop_
 _symmetry_equiv_pos_site_id
 _symmetry_equiv_pos_as_xyz
  1  'x, y, z'
loop_
 _atom_site_type_symbol
 _atom_site_label
 _atom_site_symmetry_multiplicity
 _atom_site_fract_x
 _atom_site_fract_y
 _atom_site_fract_z
 _atom_site_occupancy
  K  K1  1  0.000000  0.000000  0.000000  1.0
  Nd  Nd2  1  0.749999  0.250000  0.499999  1.0
  Nd  Nd3  1  0.250000  0.749999  0.499999  1.0
  Nd  Nd4  1  0.500000  0.500000  0.000000  1.0
