# generated using pymatgen
data_MgSnN2
_symmetry_space_group_name_H-M   'P 1'
_cell_length_a   5.96613331
_cell_length_b   6.93988991
_cell_length_c   5.53473292
_cell_angle_alpha   90.00000000
_cell_angle_beta   90.00000000
_cell_angle_gamma   90.00000000
_symmetry_Int_Tables_number   1
_chemical_formula_structural   MgSnN2
_chemical_formula_sum   'Mg4 Sn4 N8'
_cell_volume   229.16178851
_cell_formula_units_Z   4
loop_
 _symmetry_equiv_pos_site_id
 _symmetry_equiv_pos_as_xyz
  1  'x, y, z'
loop_
 _atom_site_type_symbol
 _atom_site_label
 _atom_site_symmetry_multiplicity
 _atom_site_fract_x
 _atom_site_fract_y
 _atom_site_fract_z
 _atom_site_occupancy
  Mg  Mg1  1  0.583325  0.875390  0.993279  1.0
  Mg  Mg2  1  0.416675  0.124610  0.493279  1.0
  Mg  Mg3  1  0.916675  0.375390  0.493279  1.0
  Mg  Mg4  1  0.083325  0.624610  0.993279  1.0
  Sn  Sn5  1  0.583420  0.374371  0.995880  1.0
  Sn  Sn6  1  0.416580  0.625629  0.495880  1.0
  Sn  Sn7  1  0.916580  0.874371  0.495880  1.0
  Sn  Sn8  1  0.083420  0.125629  0.995880  1.0
  N  N9  1  0.579163  0.377262  0.375312  1.0
  N  N10  1  0.420837  0.622738  0.875312  1.0
  N  N11  1  0.920837  0.877262  0.875312  1.0
  N  N12  1  0.079163  0.122738  0.375312  1.0
  N  N13  1  0.584671  0.873130  0.376530  1.0
  N  N14  1  0.415329  0.126870  0.876530  1.0
  N  N15  1  0.915329  0.373130  0.876530  1.0
  N  N16  1  0.084671  0.626870  0.376530  1.0
