# generated using pymatgen
data_Nb2O5
_symmetry_space_group_name_H-M   'P 1'
_cell_length_a   6.18220305
_cell_length_b   5.25261249
_cell_length_c   5.84511871
_cell_angle_alpha   90.00000000
_cell_angle_beta   118.62398828
_cell_angle_gamma   90.00000000
_symmetry_Int_Tables_number   1
_chemical_formula_structural   Nb2O5
_chemical_formula_sum   'Nb4 O10'
_cell_volume   166.60915909
_cell_formula_units_Z   2
loop_
 _symmetry_equiv_pos_site_id
 _symmetry_equiv_pos_as_xyz
  1  'x, y, z'
loop_
 _atom_site_type_symbol
 _atom_site_label
 _atom_site_symmetry_multiplicity
 _atom_site_fract_x
 _atom_site_fract_y
 _atom_site_fract_z
 _atom_site_occupancy
  Nb  Nb1  1  0.689697  0.460605  0.295059  1.0
  Nb  Nb2  1  0.810303  0.960605  0.704941  1.0
  Nb  Nb3  1  0.189697  0.960605  0.295059  1.0
  Nb  Nb4  1  0.310303  0.460605  0.704941  1.0
  O  O5  1  0.500000  0.217140  0.500000  1.0
  O  O6  1  0.576875  0.785809  0.353734  1.0
  O  O7  1  0.823097  0.939017  0.036049  1.0
  O  O8  1  0.676903  0.439017  0.963951  1.0
  O  O9  1  0.923125  0.285809  0.646266  1.0
  O  O10  1  0.000000  0.717140  0.500000  1.0
  O  O11  1  0.076875  0.285809  0.353734  1.0
  O  O12  1  0.323097  0.439017  0.036049  1.0
  O  O13  1  0.176903  0.939017  0.963951  1.0
  O  O14  1  0.423125  0.785809  0.646266  1.0
