# generated using pymatgen
data_BeCN2
_symmetry_space_group_name_H-M   'P 1'
_cell_length_a   3.76366280
_cell_length_b   3.76366280
_cell_length_c   4.39133863
_cell_angle_alpha   115.37446610
_cell_angle_beta   115.37446616
_cell_angle_gamma   90.00000000
_symmetry_Int_Tables_number   1
_chemical_formula_structural   BeCN2
_chemical_formula_sum   'Be2 C2 N4'
_cell_volume   49.47935618
_cell_formula_units_Z   2
loop_
 _symmetry_equiv_pos_site_id
 _symmetry_equiv_pos_as_xyz
  1  'x, y, z'
loop_
 _atom_site_type_symbol
 _atom_site_label
 _atom_site_symmetry_multiplicity
 _atom_site_fract_x
 _atom_site_fract_y
 _atom_site_fract_z
 _atom_site_occupancy
  Be  Be1  1  0.000000  0.000000  0.000000  1.0
  Be  Be2  1  0.250000  0.750000  0.500000  1.0
  C  C3  1  0.500000  0.500000  0.000000  1.0
  C  C4  1  0.750000  0.250000  0.500000  1.0
  N  N5  1  0.420386  0.375000  0.250000  1.0
  N  N6  1  0.125000  0.579614  0.750000  1.0
  N  N7  1  0.625000  0.170386  0.750000  1.0
  N  N8  1  0.829614  0.875000  0.250000  1.0
