# generated using pymatgen
data_CuAsSe2
_symmetry_space_group_name_H-M   'P 1'
_cell_length_a   6.38230670
_cell_length_b   6.38230670
_cell_length_c   6.38230670
_cell_angle_alpha   40.24354171
_cell_angle_beta   40.24354168
_cell_angle_gamma   40.24354175
_symmetry_Int_Tables_number   1
_chemical_formula_structural   CuAsSe2
_chemical_formula_sum   'Cu1 As1 Se2'
_cell_volume   97.81167800
_cell_formula_units_Z   1
loop_
 _symmetry_equiv_pos_site_id
 _symmetry_equiv_pos_as_xyz
  1  'x, y, z'
loop_
 _atom_site_type_symbol
 _atom_site_label
 _atom_site_symmetry_multiplicity
 _atom_site_fract_x
 _atom_site_fract_y
 _atom_site_fract_z
 _atom_site_occupancy
  Cu  Cu1  1  0.492377  0.492377  0.492377  1.0
  As  As2  1  0.995063  0.995063  0.995063  1.0
  Se  Se3  1  0.131883  0.131883  0.131883  1.0
  Se  Se4  1  0.631677  0.631677  0.631677  1.0
