# generated using pymatgen
data_NdGaO3
_symmetry_space_group_name_H-M   'P 1'
_cell_length_a   5.47123570
_cell_length_b   5.61586650
_cell_length_c   7.80168326
_cell_angle_alpha   90.00000000
_cell_angle_beta   90.00000000
_cell_angle_gamma   90.00000000
_symmetry_Int_Tables_number   1
_chemical_formula_structural   NdGaO3
_chemical_formula_sum   'Nd4 Ga4 O12'
_cell_volume   239.71240778
_cell_formula_units_Z   4
loop_
 _symmetry_equiv_pos_site_id
 _symmetry_equiv_pos_as_xyz
  1  'x, y, z'
loop_
 _atom_site_type_symbol
 _atom_site_label
 _atom_site_symmetry_multiplicity
 _atom_site_fract_x
 _atom_site_fract_y
 _atom_site_fract_z
 _atom_site_occupancy
  Nd  Nd1  1  0.486886  0.448202  0.241483  1.0
  Nd  Nd2  1  0.513114  0.551798  0.741483  1.0
  Nd  Nd3  1  0.013114  0.948202  0.241483  1.0
  Nd  Nd4  1  0.986886  0.051798  0.741483  1.0
  Ga  Ga5  1  0.999988  0.500005  0.991496  1.0
  Ga  Ga6  1  0.000012  0.499995  0.491496  1.0
  Ga  Ga7  1  0.500012  0.000005  0.991496  1.0
  Ga  Ga8  1  0.499988  0.999995  0.491496  1.0
  O  O9  1  0.208206  0.207065  0.444739  1.0
  O  O10  1  0.791794  0.792935  0.944739  1.0
  O  O11  1  0.291794  0.707065  0.444739  1.0
  O  O12  1  0.708206  0.292935  0.944739  1.0
  O  O13  1  0.208199  0.207059  0.038200  1.0
  O  O14  1  0.791801  0.792941  0.538200  1.0
  O  O15  1  0.291801  0.707059  0.038200  1.0
  O  O16  1  0.708199  0.292941  0.538200  1.0
  O  O17  1  0.412567  0.977239  0.741482  1.0
  O  O18  1  0.587433  0.022761  0.241482  1.0
  O  O19  1  0.087433  0.477239  0.741482  1.0
  O  O20  1  0.912567  0.522761  0.241482  1.0
