# generated using pymatgen
data_NaNbO3
_symmetry_space_group_name_H-M   'P 1'
_cell_length_a   5.67893914
_cell_length_b   5.67893914
_cell_length_c   5.67893914
_cell_angle_alpha   58.78132022
_cell_angle_beta   58.78132023
_cell_angle_gamma   58.78132017
_symmetry_Int_Tables_number   1
_chemical_formula_structural   NaNbO3
_chemical_formula_sum   'Na2 Nb2 O6'
_cell_volume   125.90040637
_cell_formula_units_Z   2
loop_
 _symmetry_equiv_pos_site_id
 _symmetry_equiv_pos_as_xyz
  1  'x, y, z'
loop_
 _atom_site_type_symbol
 _atom_site_label
 _atom_site_symmetry_multiplicity
 _atom_site_fract_x
 _atom_site_fract_y
 _atom_site_fract_z
 _atom_site_occupancy
  Na  Na1  1  0.274534  0.274534  0.274534  1.0
  Na  Na2  1  0.774534  0.774534  0.774534  1.0
  Nb  Nb3  1  0.013835  0.013835  0.013835  1.0
  Nb  Nb4  1  0.513835  0.513835  0.513835  1.0
  O  O5  1  0.243794  0.816591  0.679746  1.0
  O  O6  1  0.816591  0.679746  0.243794  1.0
  O  O7  1  0.679746  0.243794  0.816591  1.0
  O  O8  1  0.179746  0.316591  0.743794  1.0
  O  O9  1  0.743794  0.179746  0.316591  1.0
  O  O10  1  0.316591  0.743794  0.179746  1.0
