# generated using pymatgen
data_Li7VN4
_symmetry_space_group_name_H-M   'P 1'
_cell_length_a   9.60605600
_cell_length_b   9.60605600
_cell_length_c   9.60605600
_cell_angle_alpha   90.00000000
_cell_angle_beta   90.00000000
_cell_angle_gamma   90.00000000
_symmetry_Int_Tables_number   1
_chemical_formula_structural   Li7VN4
_chemical_formula_sum   'Li56 V8 N32'
_cell_volume   886.41141935
_cell_formula_units_Z   8
loop_
 _symmetry_equiv_pos_site_id
 _symmetry_equiv_pos_as_xyz
  1  'x, y, z'
loop_
 _atom_site_type_symbol
 _atom_site_label
 _atom_site_symmetry_multiplicity
 _atom_site_fract_x
 _atom_site_fract_y
 _atom_site_fract_z
 _atom_site_occupancy
  Li  Li1  1  0.864224  0.380234  0.396013  1.0
  Li  Li2  1  0.364224  0.119766  0.603987  1.0
  Li  Li3  1  0.135776  0.880234  0.103987  1.0
  Li  Li4  1  0.119766  0.603987  0.364224  1.0
  Li  Li5  1  0.103987  0.135776  0.880234  1.0
  Li  Li6  1  0.603987  0.364224  0.119766  1.0
  Li  Li7  1  0.380234  0.396013  0.864224  1.0
  Li  Li8  1  0.396013  0.864224  0.380234  1.0
  Li  Li9  1  0.880234  0.103987  0.135776  1.0
  Li  Li10  1  0.619766  0.896013  0.635776  1.0
  Li  Li11  1  0.896013  0.635776  0.619766  1.0
  Li  Li12  1  0.635776  0.619766  0.896013  1.0
  Li  Li13  1  0.135776  0.619766  0.603987  1.0
  Li  Li14  1  0.635776  0.880234  0.396013  1.0
  Li  Li15  1  0.864224  0.119766  0.896013  1.0
  Li  Li16  1  0.880234  0.396013  0.635776  1.0
  Li  Li17  1  0.896013  0.864224  0.119766  1.0
  Li  Li18  1  0.396013  0.635776  0.880234  1.0
  Li  Li19  1  0.619766  0.603987  0.135776  1.0
  Li  Li20  1  0.603987  0.135776  0.619766  1.0
  Li  Li21  1  0.119766  0.896013  0.864224  1.0
  Li  Li22  1  0.380234  0.103987  0.364224  1.0
  Li  Li23  1  0.103987  0.364224  0.380234  1.0
  Li  Li24  1  0.869185  0.629914  0.115731  1.0
  Li  Li25  1  0.364224  0.380234  0.103987  1.0
  Li  Li26  1  0.129914  0.115731  0.630815  1.0
  Li  Li27  1  0.370086  0.884269  0.130815  1.0
  Li  Li28  1  0.115731  0.630815  0.129914  1.0
  Li  Li29  1  0.130815  0.370086  0.884269  1.0
  Li  Li30  1  0.630815  0.129914  0.115731  1.0
  Li  Li31  1  0.384269  0.369185  0.629914  1.0
  Li  Li32  1  0.369185  0.629914  0.384269  1.0
  Li  Li33  1  0.884269  0.130815  0.370086  1.0
  Li  Li34  1  0.615731  0.869185  0.870086  1.0
  Li  Li35  1  0.869185  0.870086  0.615731  1.0
  Li  Li36  1  0.870086  0.615731  0.869185  1.0
  Li  Li37  1  0.370086  0.615731  0.630815  1.0
  Li  Li38  1  0.870086  0.884269  0.369185  1.0
  Li  Li39  1  0.629914  0.115731  0.869185  1.0
  Li  Li40  1  0.884269  0.369185  0.870086  1.0
  Li  Li41  1  0.133169  0.133169  0.133169  1.0
  Li  Li42  1  0.366831  0.866831  0.633169  1.0
  Li  Li43  1  0.633169  0.366831  0.866831  1.0
  Li  Li44  1  0.866831  0.633169  0.366831  1.0
  Li  Li45  1  0.866831  0.866831  0.866831  1.0
  Li  Li46  1  0.633169  0.133169  0.366831  1.0
  Li  Li47  1  0.366831  0.633169  0.133169  1.0
  Li  Li48  1  0.133169  0.366831  0.633169  1.0
  Li  Li49  1  0.129914  0.384269  0.130815  1.0
  Li  Li50  1  0.130815  0.129914  0.384269  1.0
  Li  Li51  1  0.384269  0.130815  0.129914  1.0
  Li  Li52  1  0.115731  0.869185  0.629914  1.0
  Li  Li53  1  0.630815  0.370086  0.615731  1.0
  Li  Li54  1  0.615731  0.630815  0.370086  1.0
  Li  Li55  1  0.369185  0.870086  0.884269  1.0
  Li  Li56  1  0.629914  0.384269  0.369185  1.0
  V  V57  1  0.370234  0.129766  0.870234  1.0
  V  V58  1  0.129766  0.870234  0.370234  1.0
  V  V59  1  0.870234  0.370234  0.129766  1.0
  V  V60  1  0.629766  0.629766  0.629766  1.0
  V  V61  1  0.629766  0.870234  0.129766  1.0
  V  V62  1  0.870234  0.129766  0.629766  1.0
  V  V63  1  0.129766  0.629766  0.870234  1.0
  V  V64  1  0.370234  0.370234  0.370234  1.0
  N  N65  1  0.985358  0.259636  0.021960  1.0
  N  N66  1  0.485358  0.240364  0.978040  1.0
  N  N67  1  0.014642  0.759636  0.478040  1.0
  N  N68  1  0.240364  0.978040  0.485358  1.0
  N  N69  1  0.478040  0.014642  0.759636  1.0
  N  N70  1  0.978040  0.485358  0.240364  1.0
  N  N71  1  0.259636  0.021960  0.985358  1.0
  N  N72  1  0.021960  0.985358  0.259636  1.0
  N  N73  1  0.759636  0.478040  0.014642  1.0
  N  N74  1  0.740364  0.521960  0.514642  1.0
  N  N75  1  0.521960  0.514642  0.740364  1.0
  N  N76  1  0.514642  0.740364  0.521960  1.0
  N  N77  1  0.014642  0.740364  0.978040  1.0
  N  N78  1  0.514642  0.759636  0.021960  1.0
  N  N79  1  0.985358  0.240364  0.521960  1.0
  N  N80  1  0.759636  0.021960  0.514642  1.0
  N  N81  1  0.521960  0.985358  0.240364  1.0
  N  N82  1  0.021960  0.514642  0.759636  1.0
  N  N83  1  0.740364  0.978040  0.014642  1.0
  N  N84  1  0.978040  0.014642  0.740364  1.0
  N  N85  1  0.240364  0.521960  0.985358  1.0
  N  N86  1  0.259636  0.478040  0.485358  1.0
  N  N87  1  0.478040  0.485358  0.259636  1.0
  N  N88  1  0.485358  0.259636  0.478040  1.0
  N  N89  1  0.260460  0.239540  0.760460  1.0
  N  N90  1  0.239540  0.760460  0.260460  1.0
  N  N91  1  0.760460  0.260460  0.239540  1.0
  N  N92  1  0.739540  0.739540  0.739540  1.0
  N  N93  1  0.739540  0.760460  0.239540  1.0
  N  N94  1  0.760460  0.239540  0.739540  1.0
  N  N95  1  0.239540  0.739540  0.760460  1.0
  N  N96  1  0.260460  0.260460  0.260460  1.0
