# generated using pymatgen
data_Ga2S3
_symmetry_space_group_name_H-M   'P 1'
_cell_length_a   6.53830571
_cell_length_b   6.58038090
_cell_length_c   7.12142139
_cell_angle_alpha   116.62057954
_cell_angle_beta   90.00000000
_cell_angle_gamma   119.78871149
_symmetry_Int_Tables_number   1
_chemical_formula_structural   Ga2S3
_chemical_formula_sum   'Ga4 S6'
_cell_volume   227.72675869
_cell_formula_units_Z   2
loop_
 _symmetry_equiv_pos_site_id
 _symmetry_equiv_pos_as_xyz
  1  'x, y, z'
loop_
 _atom_site_type_symbol
 _atom_site_label
 _atom_site_symmetry_multiplicity
 _atom_site_fract_x
 _atom_site_fract_y
 _atom_site_fract_z
 _atom_site_occupancy
  Ga  Ga1  1  0.137771  0.405976  0.619234  1.0
  Ga  Ga2  1  0.268204  0.405976  0.119234  1.0
  Ga  Ga3  1  0.445467  0.086968  0.629624  1.0
  Ga  Ga4  1  0.641501  0.086968  0.129624  1.0
  S  S5  1  0.426657  0.680417  0.502975  1.0
  S  S6  1  0.253760  0.680417  0.002975  1.0
  S  S7  1  0.760137  0.344284  0.513203  1.0
  S  S8  1  0.584147  0.344284  0.013203  1.0
  S  S9  1  0.911535  0.004355  0.983964  1.0
  S  S10  1  0.092820  0.004355  0.483964  1.0
