# generated using pymatgen
data_AgNO3
_symmetry_space_group_name_H-M   'P 1'
_cell_length_a   6.48133183
_cell_length_b   6.48133924
_cell_length_c   6.48129528
_cell_angle_alpha   47.67122269
_cell_angle_beta   47.67091066
_cell_angle_gamma   47.67141757
_symmetry_Int_Tables_number   1
_chemical_formula_structural   AgNO3
_chemical_formula_sum   'Ag2 N2 O6'
_cell_volume   136.22689991
_cell_formula_units_Z   2
loop_
 _symmetry_equiv_pos_site_id
 _symmetry_equiv_pos_as_xyz
  1  'x, y, z'
loop_
 _atom_site_type_symbol
 _atom_site_label
 _atom_site_symmetry_multiplicity
 _atom_site_fract_x
 _atom_site_fract_y
 _atom_site_fract_z
 _atom_site_occupancy
  Ag  Ag1  1  0.999110  0.999105  0.999106  1.0
  Ag  Ag2  1  0.499110  0.499107  0.499105  1.0
  N  N3  1  0.222340  0.222402  0.222373  1.0
  N  N4  1  0.722375  0.722360  0.722380  1.0
  O  O5  1  0.663214  0.988608  0.513598  1.0
  O  O6  1  0.488621  0.163213  0.013587  1.0
  O  O7  1  0.513605  0.663208  0.988608  1.0
  O  O8  1  0.988603  0.513606  0.663212  1.0
  O  O9  1  0.163204  0.013604  0.488613  1.0
  O  O10  1  0.013618  0.488587  0.163216  1.0
