# generated using pymatgen
data_Ba(Si3N4)2
_symmetry_space_group_name_H-M   'P 1'
_cell_length_a   4.87161655
_cell_length_b   6.64143123
_cell_length_c   6.64143077
_cell_angle_alpha   73.98176127
_cell_angle_beta   68.48408909
_cell_angle_gamma   68.48409055
_symmetry_Int_Tables_number   1
_chemical_formula_structural   Ba(Si3N4)2
_chemical_formula_sum   'Ba1 Si6 N8'
_cell_volume   183.47622336
_cell_formula_units_Z   1
loop_
 _symmetry_equiv_pos_site_id
 _symmetry_equiv_pos_as_xyz
  1  'x, y, z'
loop_
 _atom_site_type_symbol
 _atom_site_label
 _atom_site_symmetry_multiplicity
 _atom_site_fract_x
 _atom_site_fract_y
 _atom_site_fract_z
 _atom_site_occupancy
  Ba  Ba1  1  0.166192  0.000000  0.000000  1.0
  Si  Si2  1  0.812345  0.540667  0.138360  1.0
  Si  Si3  1  0.491373  0.459333  0.861640  1.0
  Si  Si4  1  0.491373  0.861640  0.459333  1.0
  Si  Si5  1  0.812345  0.138360  0.540667  1.0
  Si  Si6  1  0.019096  0.628261  0.628261  1.0
  Si  Si7  1  0.275619  0.371739  0.371739  1.0
  N  N8  1  0.983943  0.318045  0.318045  1.0
  N  N9  1  0.502163  0.118562  0.477795  1.0
  N  N10  1  0.098520  0.881438  0.522205  1.0
  N  N11  1  0.707508  0.785653  0.214347  1.0
  N  N12  1  0.502163  0.477795  0.118562  1.0
  N  N13  1  0.098520  0.522205  0.881438  1.0
  N  N14  1  0.707508  0.214347  0.785653  1.0
  N  N15  1  0.620031  0.681955  0.681955  1.0
