# generated using pymatgen
data_BaTiO3
_symmetry_space_group_name_H-M   'P 1'
_cell_length_a   3.98753058
_cell_length_b   4.12278807
_cell_length_c   4.12278806
_cell_angle_alpha   90.48823846
_cell_angle_beta   90.00000000
_cell_angle_gamma   90.00000000
_symmetry_Int_Tables_number   1
_chemical_formula_structural   BaTiO3
_chemical_formula_sum   'Ba1 Ti1 O3'
_cell_volume   67.77511745
_cell_formula_units_Z   1
loop_
 _symmetry_equiv_pos_site_id
 _symmetry_equiv_pos_as_xyz
  1  'x, y, z'
loop_
 _atom_site_type_symbol
 _atom_site_label
 _atom_site_symmetry_multiplicity
 _atom_site_fract_x
 _atom_site_fract_y
 _atom_site_fract_z
 _atom_site_occupancy
  Ba  Ba1  1  0.000000  0.007479  0.992521  1.0
  Ti  Ti2  1  0.500000  0.524514  0.475486  1.0
  O  O3  1  0.500000  0.490388  0.027013  1.0
  O  O4  1  0.500000  0.972987  0.509612  1.0
  O  O5  1  0.000000  0.484532  0.515468  1.0
