# generated using pymatgen
data_Co(HO)2
_symmetry_space_group_name_H-M   'P 1'
_cell_length_a   3.42169690
_cell_length_b   3.43130371
_cell_length_c   4.44016523
_cell_angle_alpha   89.99999998
_cell_angle_beta   89.94957241
_cell_angle_gamma   120.09291385
_symmetry_Int_Tables_number   1
_chemical_formula_structural   Co(HO)2
_chemical_formula_sum   'Co1 H2 O2'
_cell_volume   45.10481020
_cell_formula_units_Z   1
loop_
 _symmetry_equiv_pos_site_id
 _symmetry_equiv_pos_as_xyz
  1  'x, y, z'
loop_
 _atom_site_type_symbol
 _atom_site_label
 _atom_site_symmetry_multiplicity
 _atom_site_fract_x
 _atom_site_fract_y
 _atom_site_fract_z
 _atom_site_occupancy
  Co  Co1  1  0.999696  0.999848  0.985755  1.0
  H  H2  1  0.668514  0.334257  0.019188  1.0
  H  H3  1  0.333057  0.666528  0.425238  1.0
  O  O4  1  0.665910  0.332955  0.795504  1.0
  O  O5  1  0.332828  0.666414  0.204516  1.0
