# generated using pymatgen
data_FeOF
_symmetry_space_group_name_H-M   'P 1'
_cell_length_a   6.11822477
_cell_length_b   4.76494575
_cell_length_c   4.76494575
_cell_angle_alpha   90.00000000
_cell_angle_beta   90.00000000
_cell_angle_gamma   90.00000000
_symmetry_Int_Tables_number   1
_chemical_formula_structural   FeOF
_chemical_formula_sum   'Fe4 O4 F4'
_cell_volume   138.91250688
_cell_formula_units_Z   4
loop_
 _symmetry_equiv_pos_site_id
 _symmetry_equiv_pos_as_xyz
  1  'x, y, z'
loop_
 _atom_site_type_symbol
 _atom_site_label
 _atom_site_symmetry_multiplicity
 _atom_site_fract_x
 _atom_site_fract_y
 _atom_site_fract_z
 _atom_site_occupancy
  Fe  Fe1  1  0.000000  0.033924  0.033924  1.0
  Fe  Fe2  1  0.250000  0.466076  0.533924  1.0
  Fe  Fe3  1  0.500000  0.966076  0.966076  1.0
  Fe  Fe4  1  0.750000  0.533924  0.466076  1.0
  O  O5  1  0.250000  0.179968  0.820032  1.0
  O  O6  1  0.500000  0.679968  0.679968  1.0
  O  O7  1  0.750000  0.820032  0.179968  1.0
  O  O8  1  0.000000  0.320032  0.320032  1.0
  F  F9  1  0.250000  0.793742  0.206258  1.0
  F  F10  1  0.500000  0.293742  0.293742  1.0
  F  F11  1  0.750000  0.206258  0.793742  1.0
  F  F12  1  0.000000  0.706258  0.706258  1.0
