# generated using pymatgen
data_NaCuO2
_symmetry_space_group_name_H-M   'P 1'
_cell_length_a   2.79490796
_cell_length_b   5.97476528
_cell_length_c   7.10464826
_cell_angle_alpha   90.00000000
_cell_angle_beta   90.00000000
_cell_angle_gamma   103.52635596
_symmetry_Int_Tables_number   1
_chemical_formula_structural   NaCuO2
_chemical_formula_sum   'Na2 Cu2 O4'
_cell_volume   115.34916266
_cell_formula_units_Z   2
loop_
 _symmetry_equiv_pos_site_id
 _symmetry_equiv_pos_as_xyz
  1  'x, y, z'
loop_
 _atom_site_type_symbol
 _atom_site_label
 _atom_site_symmetry_multiplicity
 _atom_site_fract_x
 _atom_site_fract_y
 _atom_site_fract_z
 _atom_site_occupancy
  Na  Na1  1  0.608060  0.216122  0.386482  1.0
  Na  Na2  1  0.391940  0.783878  0.886482  1.0
  Cu  Cu3  1  0.145237  0.290475  0.985953  1.0
  Cu  Cu4  1  0.854763  0.709525  0.485953  1.0
  O  O5  1  0.552647  0.105293  0.070970  1.0
  O  O6  1  0.736896  0.473792  0.903407  1.0
  O  O7  1  0.263104  0.526208  0.403407  1.0
  O  O8  1  0.447353  0.894707  0.570970  1.0
