# generated using pymatgen
data_Ag2Se
_symmetry_space_group_name_H-M   'P 1'
_cell_length_a   4.67993508
_cell_length_b   7.79719642
_cell_length_c   7.38932843
_cell_angle_alpha   90.00000000
_cell_angle_beta   90.00000000
_cell_angle_gamma   90.00000000
_symmetry_Int_Tables_number   1
_chemical_formula_structural   Ag2Se
_chemical_formula_sum   'Ag8 Se4'
_cell_volume   269.63935101
_cell_formula_units_Z   4
loop_
 _symmetry_equiv_pos_site_id
 _symmetry_equiv_pos_as_xyz
  1  'x, y, z'
loop_
 _atom_site_type_symbol
 _atom_site_label
 _atom_site_symmetry_multiplicity
 _atom_site_fract_x
 _atom_site_fract_y
 _atom_site_fract_z
 _atom_site_occupancy
  Ag  Ag1  1  0.755533  0.290838  0.383767  1.0
  Ag  Ag2  1  0.239422  0.462073  0.917545  1.0
  Ag  Ag3  1  0.260578  0.537927  0.417545  1.0
  Ag  Ag4  1  0.744467  0.709162  0.883767  1.0
  Ag  Ag5  1  0.255533  0.209162  0.616233  1.0
  Ag  Ag6  1  0.739422  0.037927  0.082455  1.0
  Ag  Ag7  1  0.760578  0.962073  0.582455  1.0
  Ag  Ag8  1  0.244467  0.790838  0.116233  1.0
  Se  Se9  1  0.246797  0.734093  0.705077  1.0
  Se  Se10  1  0.253203  0.265907  0.205077  1.0
  Se  Se11  1  0.746797  0.765907  0.294923  1.0
  Se  Se12  1  0.753203  0.234093  0.794923  1.0
