# generated using pymatgen
data_LaBiO3
_symmetry_space_group_name_H-M   'P 1'
_cell_length_a   6.27183982
_cell_length_b   6.27183982
_cell_length_c   6.27183979
_cell_angle_alpha   59.99758945
_cell_angle_beta   59.99758945
_cell_angle_gamma   59.99759029
_symmetry_Int_Tables_number   1
_chemical_formula_structural   LaBiO3
_chemical_formula_sum   'La2 Bi2 O6'
_cell_volume   174.44002517
_cell_formula_units_Z   2
loop_
 _symmetry_equiv_pos_site_id
 _symmetry_equiv_pos_as_xyz
  1  'x, y, z'
loop_
 _atom_site_type_symbol
 _atom_site_label
 _atom_site_symmetry_multiplicity
 _atom_site_fract_x
 _atom_site_fract_y
 _atom_site_fract_z
 _atom_site_occupancy
  La  La1  1  0.280274  0.280274  0.280274  1.0
  La  La2  1  0.780274  0.780274  0.780274  1.0
  Bi  Bi3  1  0.000522  0.000522  0.000522  1.0
  Bi  Bi4  1  0.500522  0.500522  0.500522  1.0
  O  O5  1  0.172611  0.903771  0.624543  1.0
  O  O6  1  0.403771  0.672611  0.124543  1.0
  O  O7  1  0.124543  0.403771  0.672611  1.0
  O  O8  1  0.903771  0.624543  0.172611  1.0
  O  O9  1  0.624543  0.172611  0.903771  1.0
  O  O10  1  0.672611  0.124543  0.403771  1.0
