# generated using pymatgen
data_CrSbO4
_symmetry_space_group_name_H-M   'P 1'
_cell_length_a   5.58839350
_cell_length_b   5.58839353
_cell_length_c   5.58839280
_cell_angle_alpha   138.42796627
_cell_angle_beta   138.42796205
_cell_angle_gamma   60.24818380
_symmetry_Int_Tables_number   1
_chemical_formula_structural   CrSbO4
_chemical_formula_sum   'Cr1 Sb1 O4'
_cell_volume   76.04440411
_cell_formula_units_Z   1
loop_
 _symmetry_equiv_pos_site_id
 _symmetry_equiv_pos_as_xyz
  1  'x, y, z'
loop_
 _atom_site_type_symbol
 _atom_site_label
 _atom_site_symmetry_multiplicity
 _atom_site_fract_x
 _atom_site_fract_y
 _atom_site_fract_z
 _atom_site_occupancy
  Cr  Cr1  1  0.750000  0.250000  0.500000  1.0
  Sb  Sb2  1  0.000000  0.000000  0.000000  1.0
  O  O3  1  0.542040  0.042040  0.500000  1.0
  O  O4  1  0.204641  0.204641  0.000000  1.0
  O  O5  1  0.957960  0.457960  0.500000  1.0
  O  O6  1  0.795359  0.795359  0.000000  1.0
