# generated using pymatgen
data_CsAgO
_symmetry_space_group_name_H-M   'P 1'
_cell_length_a   6.30203020
_cell_length_b   8.03589289
_cell_length_c   8.03589289
_cell_angle_alpha   81.15533185
_cell_angle_beta   66.91367248
_cell_angle_gamma   66.91367250
_symmetry_Int_Tables_number   1
_chemical_formula_structural   CsAgO
_chemical_formula_sum   'Cs4 Ag4 O4'
_cell_volume   344.38501740
_cell_formula_units_Z   4
loop_
 _symmetry_equiv_pos_site_id
 _symmetry_equiv_pos_as_xyz
  1  'x, y, z'
loop_
 _atom_site_type_symbol
 _atom_site_label
 _atom_site_symmetry_multiplicity
 _atom_site_fract_x
 _atom_site_fract_y
 _atom_site_fract_z
 _atom_site_occupancy
  Cs  Cs1  1  0.558111  0.192024  0.192024  1.0
  Cs  Cs2  1  0.249865  0.807976  0.192024  1.0
  Cs  Cs3  1  0.942158  0.807976  0.807976  1.0
  Cs  Cs4  1  0.249865  0.192024  0.807976  1.0
  Ag  Ag5  1  0.890981  0.218038  0.500000  1.0
  Ag  Ag6  1  0.609019  0.781962  0.500000  1.0
  Ag  Ag7  1  0.609019  0.500000  0.781962  1.0
  Ag  Ag8  1  0.890981  0.500000  0.218038  1.0
  O  O9  1  0.467321  0.782347  0.782347  1.0
  O  O10  1  0.750331  0.217653  0.782347  1.0
  O  O11  1  0.750331  0.782347  0.217653  1.0
  O  O12  1  0.032016  0.217653  0.217653  1.0
