# generated using pymatgen
data_Na3SbSe4
_symmetry_space_group_name_H-M   'P 1'
_cell_length_a   6.55490635
_cell_length_b   6.55490634
_cell_length_c   6.55490634
_cell_angle_alpha   109.47122062
_cell_angle_beta   109.47122062
_cell_angle_gamma   109.47122062
_symmetry_Int_Tables_number   1
_chemical_formula_structural   Na3SbSe4
_chemical_formula_sum   'Na3 Sb1 Se4'
_cell_volume   216.80913765
_cell_formula_units_Z   1
loop_
 _symmetry_equiv_pos_site_id
 _symmetry_equiv_pos_as_xyz
  1  'x, y, z'
loop_
 _atom_site_type_symbol
 _atom_site_label
 _atom_site_symmetry_multiplicity
 _atom_site_fract_x
 _atom_site_fract_y
 _atom_site_fract_z
 _atom_site_occupancy
  Na  Na1  1  0.000000  0.500000  0.500000  1.0
  Na  Na2  1  0.500000  0.000000  0.500000  1.0
  Na  Na3  1  0.500000  0.500000  0.000000  1.0
  Sb  Sb4  1  0.000000  0.000000  0.000000  1.0
  Se  Se5  1  0.384581  0.384581  0.384581  1.0
  Se  Se6  1  0.000000  0.615419  0.000000  1.0
  Se  Se7  1  0.615419  0.000000  0.000000  1.0
  Se  Se8  1  0.000000  0.000000  0.615419  1.0
