# generated using pymatgen
data_BaAl2B2O7
_symmetry_space_group_name_H-M   'P 1'
_cell_length_a   8.80915420
_cell_length_b   8.80915420
_cell_length_c   8.80915420
_cell_angle_alpha   33.34059126
_cell_angle_beta   33.34059127
_cell_angle_gamma   33.34059124
_symmetry_Int_Tables_number   1
_chemical_formula_structural   BaAl2B2O7
_chemical_formula_sum   'Ba1 Al2 B2 O7'
_cell_volume   183.86882376
_cell_formula_units_Z   1
loop_
 _symmetry_equiv_pos_site_id
 _symmetry_equiv_pos_as_xyz
  1  'x, y, z'
loop_
 _atom_site_type_symbol
 _atom_site_label
 _atom_site_symmetry_multiplicity
 _atom_site_fract_x
 _atom_site_fract_y
 _atom_site_fract_z
 _atom_site_occupancy
  Ba  Ba1  1  0.000000  0.000000  0.000000  1.0
  Al  Al2  1  0.567825  0.567825  0.567825  1.0
  Al  Al3  1  0.432175  0.432175  0.432175  1.0
  B  B4  1  0.737775  0.737775  0.737775  1.0
  B  B5  1  0.262225  0.262225  0.262225  1.0
  O  O6  1  0.483738  0.959408  0.352316  1.0
  O  O7  1  0.352316  0.483738  0.959408  1.0
  O  O8  1  0.959408  0.352316  0.483738  1.0
  O  O9  1  0.500000  0.500000  0.500000  1.0
  O  O10  1  0.040592  0.516262  0.647684  1.0
  O  O11  1  0.647684  0.040592  0.516262  1.0
  O  O12  1  0.516262  0.647684  0.040592  1.0
