# generated using pymatgen
data_Ba(TaN2)2
_symmetry_space_group_name_H-M   'P 1'
_cell_length_a   11.31410500
_cell_length_b   11.31410500
_cell_length_c   11.31410500
_cell_angle_alpha   90.00000000
_cell_angle_beta   90.00000000
_cell_angle_gamma   90.00000000
_symmetry_Int_Tables_number   1
_chemical_formula_structural   Ba(TaN2)2
_chemical_formula_sum   'Ba12 Ta24 N48'
_cell_volume   1448.30694960
_cell_formula_units_Z   12
loop_
 _symmetry_equiv_pos_site_id
 _symmetry_equiv_pos_as_xyz
  1  'x, y, z'
loop_
 _atom_site_type_symbol
 _atom_site_label
 _atom_site_symmetry_multiplicity
 _atom_site_fract_x
 _atom_site_fract_y
 _atom_site_fract_z
 _atom_site_occupancy
  Ba  Ba1  1  0.500000  0.500000  0.000000  1.0
  Ba  Ba2  1  0.500000  0.000000  0.500000  1.0
  Ba  Ba3  1  0.000000  0.500000  0.500000  1.0
  Ba  Ba4  1  0.000000  0.000000  0.000000  1.0
  Ba  Ba5  1  0.120726  0.879274  0.379274  1.0
  Ba  Ba6  1  0.879274  0.379274  0.120726  1.0
  Ba  Ba7  1  0.379274  0.120726  0.879274  1.0
  Ba  Ba8  1  0.620726  0.620726  0.620726  1.0
  Ba  Ba9  1  0.879274  0.120726  0.620726  1.0
  Ba  Ba10  1  0.120726  0.620726  0.879274  1.0
  Ba  Ba11  1  0.620726  0.879274  0.120726  1.0
  Ba  Ba12  1  0.379274  0.379274  0.379274  1.0
  Ta  Ta13  1  0.391565  0.706492  0.348816  1.0
  Ta  Ta14  1  0.608435  0.206492  0.151184  1.0
  Ta  Ta15  1  0.108435  0.293508  0.848816  1.0
  Ta  Ta16  1  0.891565  0.793508  0.651184  1.0
  Ta  Ta17  1  0.348816  0.391565  0.706492  1.0
  Ta  Ta18  1  0.151184  0.608435  0.206492  1.0
  Ta  Ta19  1  0.848816  0.108435  0.293508  1.0
  Ta  Ta20  1  0.651184  0.891565  0.793508  1.0
  Ta  Ta21  1  0.706492  0.348816  0.391565  1.0
  Ta  Ta22  1  0.206492  0.151184  0.608435  1.0
  Ta  Ta23  1  0.293508  0.848816  0.108435  1.0
  Ta  Ta24  1  0.793508  0.651184  0.891565  1.0
  Ta  Ta25  1  0.608435  0.293508  0.651184  1.0
  Ta  Ta26  1  0.391565  0.793508  0.848816  1.0
  Ta  Ta27  1  0.891565  0.706492  0.151184  1.0
  Ta  Ta28  1  0.108435  0.206492  0.348816  1.0
  Ta  Ta29  1  0.651184  0.608435  0.293508  1.0
  Ta  Ta30  1  0.848816  0.391565  0.793508  1.0
  Ta  Ta31  1  0.151184  0.891565  0.706492  1.0
  Ta  Ta32  1  0.348816  0.108435  0.206492  1.0
  Ta  Ta33  1  0.293508  0.651184  0.608435  1.0
  Ta  Ta34  1  0.793508  0.848816  0.391565  1.0
  Ta  Ta35  1  0.706492  0.151184  0.891565  1.0
  Ta  Ta36  1  0.206492  0.348816  0.108435  1.0
  N  N37  1  0.362624  0.858320  0.265934  1.0
  N  N38  1  0.637376  0.358320  0.234066  1.0
  N  N39  1  0.137376  0.141680  0.765934  1.0
  N  N40  1  0.862624  0.641680  0.734066  1.0
  N  N41  1  0.265934  0.362624  0.858320  1.0
  N  N42  1  0.234066  0.637376  0.358320  1.0
  N  N43  1  0.765934  0.137376  0.141680  1.0
  N  N44  1  0.734066  0.862624  0.641680  1.0
  N  N45  1  0.858320  0.265934  0.362624  1.0
  N  N46  1  0.358320  0.234066  0.637376  1.0
  N  N47  1  0.141680  0.765934  0.137376  1.0
  N  N48  1  0.641680  0.734066  0.862624  1.0
  N  N49  1  0.637376  0.141680  0.734066  1.0
  N  N50  1  0.362624  0.641680  0.765934  1.0
  N  N51  1  0.862624  0.858320  0.234066  1.0
  N  N52  1  0.137376  0.358320  0.265934  1.0
  N  N53  1  0.734066  0.637376  0.141680  1.0
  N  N54  1  0.765934  0.362624  0.641680  1.0
  N  N55  1  0.234066  0.862624  0.858320  1.0
  N  N56  1  0.265934  0.137376  0.358320  1.0
  N  N57  1  0.141680  0.734066  0.637376  1.0
  N  N58  1  0.641680  0.765934  0.362624  1.0
  N  N59  1  0.858320  0.234066  0.862624  1.0
  N  N60  1  0.358320  0.265934  0.137376  1.0
  N  N61  1  0.419094  0.729251  0.516548  1.0
  N  N62  1  0.580906  0.229251  0.983452  1.0
  N  N63  1  0.080906  0.270749  0.016548  1.0
  N  N64  1  0.919094  0.770749  0.483452  1.0
  N  N65  1  0.516548  0.419094  0.729251  1.0
  N  N66  1  0.983452  0.580906  0.229251  1.0
  N  N67  1  0.016548  0.080906  0.270749  1.0
  N  N68  1  0.483452  0.919094  0.770749  1.0
  N  N69  1  0.729251  0.516548  0.419094  1.0
  N  N70  1  0.229251  0.983452  0.580906  1.0
  N  N71  1  0.270749  0.016548  0.080906  1.0
  N  N72  1  0.770749  0.483452  0.919094  1.0
  N  N73  1  0.580906  0.270749  0.483452  1.0
  N  N74  1  0.419094  0.770749  0.016548  1.0
  N  N75  1  0.919094  0.729251  0.983452  1.0
  N  N76  1  0.080906  0.229251  0.516548  1.0
  N  N77  1  0.483452  0.580906  0.270749  1.0
  N  N78  1  0.016548  0.419094  0.770749  1.0
  N  N79  1  0.983452  0.919094  0.729251  1.0
  N  N80  1  0.516548  0.080906  0.229251  1.0
  N  N81  1  0.270749  0.483452  0.580906  1.0
  N  N82  1  0.770749  0.016548  0.419094  1.0
  N  N83  1  0.729251  0.983452  0.919094  1.0
  N  N84  1  0.229251  0.516548  0.080906  1.0
