# generated using pymatgen
data_BC2N
_symmetry_space_group_name_H-M   'P 1'
_cell_length_a   3.60764270
_cell_length_b   3.65102306
_cell_length_c   3.60175008
_cell_angle_alpha   90.00000000
_cell_angle_beta   90.00000000
_cell_angle_gamma   90.00000000
_symmetry_Int_Tables_number   1
_chemical_formula_structural   BC2N
_chemical_formula_sum   'B2 C4 N2'
_cell_volume   47.44076341
_cell_formula_units_Z   2
loop_
 _symmetry_equiv_pos_site_id
 _symmetry_equiv_pos_as_xyz
  1  'x, y, z'
loop_
 _atom_site_type_symbol
 _atom_site_label
 _atom_site_symmetry_multiplicity
 _atom_site_fract_x
 _atom_site_fract_y
 _atom_site_fract_z
 _atom_site_occupancy
  B  B1  1  0.250000  0.000000  0.747227  1.0
  B  B2  1  0.750000  0.000000  0.252773  1.0
  C  C3  1  0.750000  0.500000  0.744874  1.0
  C  C4  1  0.250000  0.500000  0.255126  1.0
  C  C5  1  0.000000  0.742496  0.500000  1.0
  C  C6  1  0.500000  0.257504  0.500000  1.0
  N  N7  1  0.500000  0.741930  0.000000  1.0
  N  N8  1  0.000000  0.258070  0.000000  1.0
