# generated using pymatgen
data_Ag2S
_symmetry_space_group_name_H-M   'P 1'
_cell_length_a   4.26464048
_cell_length_b   4.26464052
_cell_length_c   8.96929904
_cell_angle_alpha   107.51666845
_cell_angle_beta   107.23930069
_cell_angle_gamma   111.82895163
_symmetry_Int_Tables_number   1
_chemical_formula_structural   Ag2S
_chemical_formula_sum   'Ag4 S2'
_cell_volume   128.13230122
_cell_formula_units_Z   2
loop_
 _symmetry_equiv_pos_site_id
 _symmetry_equiv_pos_as_xyz
  1  'x, y, z'
loop_
 _atom_site_type_symbol
 _atom_site_label
 _atom_site_symmetry_multiplicity
 _atom_site_fract_x
 _atom_site_fract_y
 _atom_site_fract_z
 _atom_site_occupancy
  Ag  Ag1  1  0.031551  0.586017  0.308784  1.0
  Ag  Ag2  1  0.544140  0.075856  0.809998  1.0
  Ag  Ag3  1  0.399955  0.729346  0.064651  1.0
  Ag  Ag4  1  0.689189  0.440856  0.565023  1.0
  S  S5  1  0.076417  0.051218  0.563818  1.0
  S  S6  1  0.008747  0.116708  0.062727  1.0
