# generated using pymatgen
data_LiMgP
_symmetry_space_group_name_H-M   'P 1'
_cell_length_a   4.25422299
_cell_length_b   4.25422294
_cell_length_c   4.25422344
_cell_angle_alpha   59.99999920
_cell_angle_beta   60.00000359
_cell_angle_gamma   59.99999970
_symmetry_Int_Tables_number   1
_chemical_formula_structural   LiMgP
_chemical_formula_sum   'Li1 Mg1 P1'
_cell_volume   54.44347053
_cell_formula_units_Z   1
loop_
 _symmetry_equiv_pos_site_id
 _symmetry_equiv_pos_as_xyz
  1  'x, y, z'
loop_
 _atom_site_type_symbol
 _atom_site_label
 _atom_site_symmetry_multiplicity
 _atom_site_fract_x
 _atom_site_fract_y
 _atom_site_fract_z
 _atom_site_occupancy
  Li  Li1  1  0.750000  0.750000  0.750000  1.0
  Mg  Mg2  1  0.250000  0.250000  0.250000  1.0
  P  P3  1  0.000000  0.000000  0.000000  1.0
