# generated using pymatgen
data_Sr(AlTe2)2
_symmetry_space_group_name_H-M   'P 1'
_cell_length_a   6.73272551
_cell_length_b   6.84784507
_cell_length_c   6.84784507
_cell_angle_alpha   76.01564730
_cell_angle_beta   60.55875239
_cell_angle_gamma   60.55875239
_symmetry_Int_Tables_number   1
_chemical_formula_structural   Sr(AlTe2)2
_chemical_formula_sum   'Sr1 Al2 Te4'
_cell_volume   239.43940586
_cell_formula_units_Z   1
loop_
 _symmetry_equiv_pos_site_id
 _symmetry_equiv_pos_as_xyz
  1  'x, y, z'
loop_
 _atom_site_type_symbol
 _atom_site_label
 _atom_site_symmetry_multiplicity
 _atom_site_fract_x
 _atom_site_fract_y
 _atom_site_fract_z
 _atom_site_occupancy
  Sr  Sr1  1  0.750000  0.999986  0.000014  1.0
  Al  Al2  1  0.250000  0.500023  0.499977  1.0
  Al  Al3  1  0.750000  0.500007  0.499993  1.0
  Te  Te4  1  0.171916  0.499996  0.156184  1.0
  Te  Te5  1  0.328084  0.843816  0.500004  1.0
  Te  Te6  1  0.671902  0.156190  0.500018  1.0
  Te  Te7  1  0.828098  0.499982  0.843810  1.0
