# generated using pymatgen
data_Li5ReN4
_symmetry_space_group_name_H-M   'P 1'
_cell_length_a   4.92413095
_cell_length_b   6.67056271
_cell_length_c   6.75608236
_cell_angle_alpha   90.00000000
_cell_angle_beta   90.00000000
_cell_angle_gamma   90.00000000
_symmetry_Int_Tables_number   1
_chemical_formula_structural   Li5ReN4
_chemical_formula_sum   'Li10 Re2 N8'
_cell_volume   221.91517459
_cell_formula_units_Z   2
loop_
 _symmetry_equiv_pos_site_id
 _symmetry_equiv_pos_as_xyz
  1  'x, y, z'
loop_
 _atom_site_type_symbol
 _atom_site_label
 _atom_site_symmetry_multiplicity
 _atom_site_fract_x
 _atom_site_fract_y
 _atom_site_fract_z
 _atom_site_occupancy
  Li  Li1  1  0.303501  0.250000  0.250000  1.0
  Li  Li2  1  0.696499  0.750000  0.750000  1.0
  Li  Li3  1  0.244675  0.012340  0.551304  1.0
  Li  Li4  1  0.244675  0.487660  0.948696  1.0
  Li  Li5  1  0.755325  0.512340  0.448696  1.0
  Li  Li6  1  0.755325  0.987660  0.051304  1.0
  Li  Li7  1  0.755325  0.987660  0.448696  1.0
  Li  Li8  1  0.755325  0.512340  0.051304  1.0
  Li  Li9  1  0.244675  0.012340  0.948696  1.0
  Li  Li10  1  0.244675  0.487660  0.551304  1.0
  Re  Re11  1  0.278235  0.750000  0.250000  1.0
  Re  Re12  1  0.721765  0.250000  0.750000  1.0
  N  N13  1  0.073180  0.979807  0.250000  1.0
  N  N14  1  0.518257  0.250000  0.978731  1.0
  N  N15  1  0.481743  0.750000  0.478731  1.0
  N  N16  1  0.481743  0.750000  0.021269  1.0
  N  N17  1  0.073180  0.520193  0.250000  1.0
  N  N18  1  0.926820  0.479807  0.750000  1.0
  N  N19  1  0.926820  0.020193  0.750000  1.0
  N  N20  1  0.518257  0.250000  0.521269  1.0
