# generated using pymatgen
data_CoAsS
_symmetry_space_group_name_H-M   'P 1'
_cell_length_a   5.58590337
_cell_length_b   5.59044160
_cell_length_c   5.57938872
_cell_angle_alpha   90.00000000
_cell_angle_beta   90.00000000
_cell_angle_gamma   90.00000000
_symmetry_Int_Tables_number   1
_chemical_formula_structural   CoAsS
_chemical_formula_sum   'Co4 As4 S4'
_cell_volume   174.23129063
_cell_formula_units_Z   4
loop_
 _symmetry_equiv_pos_site_id
 _symmetry_equiv_pos_as_xyz
  1  'x, y, z'
loop_
 _atom_site_type_symbol
 _atom_site_label
 _atom_site_symmetry_multiplicity
 _atom_site_fract_x
 _atom_site_fract_y
 _atom_site_fract_z
 _atom_site_occupancy
  Co  Co1  1  0.493372  0.239085  0.501388  1.0
  Co  Co2  1  0.993371  0.760915  0.501388  1.0
  Co  Co3  1  0.006628  0.239085  0.001388  1.0
  Co  Co4  1  0.506629  0.760915  0.001388  1.0
  As  As5  1  0.878898  0.370580  0.383089  1.0
  As  As6  1  0.621102  0.370580  0.883089  1.0
  As  As7  1  0.378898  0.629420  0.383089  1.0
  As  As8  1  0.121102  0.629420  0.883089  1.0
  S  S9  1  0.118711  0.129320  0.622523  1.0
  S  S10  1  0.381289  0.129320  0.122523  1.0
  S  S11  1  0.881289  0.870680  0.122523  1.0
  S  S12  1  0.618711  0.870680  0.622523  1.0
