# generated using pymatgen
data_C3N4
_symmetry_space_group_name_H-M   'P 1'
_cell_length_a   4.78436432
_cell_length_b   4.78436390
_cell_length_c   7.07749381
_cell_angle_alpha   90.00000000
_cell_angle_beta   90.00000000
_cell_angle_gamma   120.00000289
_symmetry_Int_Tables_number   1
_chemical_formula_structural   C3N4
_chemical_formula_sum   'C6 N8'
_cell_volume   140.30028879
_cell_formula_units_Z   2
loop_
 _symmetry_equiv_pos_site_id
 _symmetry_equiv_pos_as_xyz
  1  'x, y, z'
loop_
 _atom_site_type_symbol
 _atom_site_label
 _atom_site_symmetry_multiplicity
 _atom_site_fract_x
 _atom_site_fract_y
 _atom_site_fract_z
 _atom_site_occupancy
  C  C1  1  0.490046  0.980093  0.500000  1.0
  C  C2  1  0.490046  0.509954  0.500000  1.0
  C  C3  1  0.823654  0.176346  0.000000  1.0
  C  C4  1  0.823654  0.647309  0.000000  1.0
  C  C5  1  0.019907  0.509954  0.500000  1.0
  C  C6  1  0.352691  0.176346  0.000000  1.0
  N  N7  1  0.503425  0.496575  0.000000  1.0
  N  N8  1  0.170210  0.340420  0.500000  1.0
  N  N9  1  0.170210  0.829790  0.500000  1.0
  N  N10  1  0.000000  0.000000  0.000000  1.0
  N  N11  1  0.666667  0.333333  0.500000  1.0
  N  N12  1  0.993150  0.496575  0.000000  1.0
  N  N13  1  0.659580  0.829790  0.500000  1.0
  N  N14  1  0.503425  0.006850  0.000000  1.0
