# generated using pymatgen
data_Al2CdS4
_symmetry_space_group_name_H-M   'P 1'
_cell_length_a   5.63949553
_cell_length_b   5.63949553
_cell_length_c   6.49583818
_cell_angle_alpha   115.72710339
_cell_angle_beta   115.72710338
_cell_angle_gamma   89.99999996
_symmetry_Int_Tables_number   1
_chemical_formula_structural   Al2CdS4
_chemical_formula_sum   'Al2 Cd1 S4'
_cell_volume   163.08292877
_cell_formula_units_Z   1
loop_
 _symmetry_equiv_pos_site_id
 _symmetry_equiv_pos_as_xyz
  1  'x, y, z'
loop_
 _atom_site_type_symbol
 _atom_site_label
 _atom_site_symmetry_multiplicity
 _atom_site_fract_x
 _atom_site_fract_y
 _atom_site_fract_z
 _atom_site_occupancy
  Al  Al1  1  0.250000  0.750000  0.500000  1.0
  Al  Al2  1  0.000000  0.000000  0.000000  1.0
  Cd  Cd3  1  0.500000  0.500000  0.000000  1.0
  S  S4  1  0.914657  0.898336  0.268281  1.0
  S  S5  1  0.353623  0.369944  0.268281  1.0
  S  S6  1  0.101664  0.646377  0.731719  1.0
  S  S7  1  0.630056  0.085343  0.731719  1.0
