# generated using pymatgen
data_NbVO4
_symmetry_space_group_name_H-M   'P 1'
_cell_length_a   3.15478273
_cell_length_b   5.69420548
_cell_length_c   5.69386892
_cell_angle_alpha   73.47106377
_cell_angle_beta   123.84184563
_cell_angle_gamma   123.83832427
_symmetry_Int_Tables_number   1
_chemical_formula_structural   NbVO4
_chemical_formula_sum   'Nb1 V1 O4'
_cell_volume   70.51625808
_cell_formula_units_Z   1
loop_
 _symmetry_equiv_pos_site_id
 _symmetry_equiv_pos_as_xyz
  1  'x, y, z'
loop_
 _atom_site_type_symbol
 _atom_site_label
 _atom_site_symmetry_multiplicity
 _atom_site_fract_x
 _atom_site_fract_y
 _atom_site_fract_z
 _atom_site_occupancy
  Nb  Nb1  1  0.936694  0.497228  0.497223  1.0
  V  V2  1  0.506232  0.997286  0.997286  1.0
  O  O3  1  0.419000  0.198346  0.198279  1.0
  O  O4  1  0.507093  0.298739  0.695986  1.0
  O  O5  1  0.507172  0.696022  0.298780  1.0
  O  O6  1  0.619097  0.796462  0.796537  1.0
