# generated using pymatgen
data_Mn(AlTe2)2
_symmetry_space_group_name_H-M   'P 1'
_cell_length_a   5.98897558
_cell_length_b   5.98897558
_cell_length_c   7.59383442
_cell_angle_alpha   113.22428527
_cell_angle_beta   113.22428527
_cell_angle_gamma   90.00000000
_symmetry_Int_Tables_number   1
_chemical_formula_structural   Mn(AlTe2)2
_chemical_formula_sum   'Mn1 Al2 Te4'
_cell_volume   226.08800515
_cell_formula_units_Z   1
loop_
 _symmetry_equiv_pos_site_id
 _symmetry_equiv_pos_as_xyz
  1  'x, y, z'
loop_
 _atom_site_type_symbol
 _atom_site_label
 _atom_site_symmetry_multiplicity
 _atom_site_fract_x
 _atom_site_fract_y
 _atom_site_fract_z
 _atom_site_occupancy
  Mn  Mn1  1  0.000000  0.000000  0.000000  1.0
  Al  Al2  1  0.250000  0.750000  0.500000  1.0
  Al  Al3  1  0.750000  0.250000  0.500000  1.0
  Te  Te4  1  0.388831  0.388831  0.243806  1.0
  Te  Te5  1  0.854975  0.854975  0.243806  1.0
  Te  Te6  1  0.145025  0.611169  0.756194  1.0
  Te  Te7  1  0.611169  0.145025  0.756194  1.0
