# generated using pymatgen
data_ScHO2
_symmetry_space_group_name_H-M   'P 1'
_cell_length_a   6.71846929
_cell_length_b   6.71846929
_cell_length_c   4.05048020
_cell_angle_alpha   90.00000000
_cell_angle_beta   90.00000000
_cell_angle_gamma   28.22846626
_symmetry_Int_Tables_number   1
_chemical_formula_structural   ScHO2
_chemical_formula_sum   'Sc2 H2 O4'
_cell_volume   86.47644488
_cell_formula_units_Z   2
loop_
 _symmetry_equiv_pos_site_id
 _symmetry_equiv_pos_as_xyz
  1  'x, y, z'
loop_
 _atom_site_type_symbol
 _atom_site_label
 _atom_site_symmetry_multiplicity
 _atom_site_fract_x
 _atom_site_fract_y
 _atom_site_fract_z
 _atom_site_occupancy
  Sc  Sc1  1  0.675564  0.675564  0.249111  1.0
  Sc  Sc2  1  0.324436  0.324436  0.749111  1.0
  H  H3  1  0.015818  0.015818  0.434951  1.0
  H  H4  1  0.984182  0.984182  0.934951  1.0
  O  O5  1  0.284411  0.284411  0.249539  1.0
  O  O6  1  0.715589  0.715589  0.749539  1.0
  O  O7  1  0.069112  0.069112  0.255799  1.0
  O  O8  1  0.930888  0.930888  0.755799  1.0
