# generated using pymatgen
data_KBi2F7
_symmetry_space_group_name_H-M   'P 1'
_cell_length_a   3.98382409
_cell_length_b   4.35498755
_cell_length_c   12.69076492
_cell_angle_alpha   61.86138903
_cell_angle_beta   64.36947306
_cell_angle_gamma   62.32985968
_symmetry_Int_Tables_number   1
_chemical_formula_structural   KBi2F7
_chemical_formula_sum   'K1 Bi2 F7'
_cell_volume   165.39681862
_cell_formula_units_Z   1
loop_
 _symmetry_equiv_pos_site_id
 _symmetry_equiv_pos_as_xyz
  1  'x, y, z'
loop_
 _atom_site_type_symbol
 _atom_site_label
 _atom_site_symmetry_multiplicity
 _atom_site_fract_x
 _atom_site_fract_y
 _atom_site_fract_z
 _atom_site_occupancy
  K  K1  1  0.056687  0.011642  0.329436  1.0
  Bi  Bi2  1  0.027671  0.875805  0.022654  1.0
  Bi  Bi3  1  0.910165  0.139495  0.661717  1.0
  F  F4  1  0.597702  0.566093  0.109612  1.0
  F  F5  1  0.825975  0.774707  0.222518  1.0
  F  F6  1  0.275212  0.290039  0.743460  1.0
  F  F7  1  0.711506  0.447268  0.485297  1.0
  F  F8  1  0.703523  0.748688  0.637603  1.0
  F  F9  1  0.364455  0.296903  0.015058  1.0
  F  F10  1  0.813105  0.849360  0.867977  1.0
