# generated using pymatgen
data_GaBiO3
_symmetry_space_group_name_H-M   'P 1'
_cell_length_a   5.64157176
_cell_length_b   5.58496304
_cell_length_c   5.58496265
_cell_angle_alpha   59.99999459
_cell_angle_beta   60.33139005
_cell_angle_gamma   89.99999973
_symmetry_Int_Tables_number   1
_chemical_formula_structural   GaBiO3
_chemical_formula_sum   'Ga2 Bi2 O6'
_cell_volume   125.04978807
_cell_formula_units_Z   2
loop_
 _symmetry_equiv_pos_site_id
 _symmetry_equiv_pos_as_xyz
  1  'x, y, z'
loop_
 _atom_site_type_symbol
 _atom_site_label
 _atom_site_symmetry_multiplicity
 _atom_site_fract_x
 _atom_site_fract_y
 _atom_site_fract_z
 _atom_site_occupancy
  Ga  Ga1  1  0.467166  0.489056  0.021890  1.0
  Ga  Ga2  1  0.967166  0.989056  0.021890  1.0
  Bi  Bi3  1  0.640705  0.213568  0.572863  1.0
  Bi  Bi4  1  0.140705  0.713568  0.572863  1.0
  O  O5  1  0.770271  0.273891  0.908496  1.0
  O  O6  1  0.770271  0.817613  0.503619  1.0
  O  O7  1  0.770271  0.678767  0.047342  1.0
  O  O8  1  0.270271  0.317613  0.908496  1.0
  O  O9  1  0.270271  0.178767  0.503619  1.0
  O  O10  1  0.270271  0.773891  0.047342  1.0
