# generated using pymatgen
data_AlCoO3
_symmetry_space_group_name_H-M   'P 1'
_cell_length_a   4.85975374
_cell_length_b   5.32559569
_cell_length_c   4.96477669
_cell_angle_alpha   87.24563438
_cell_angle_beta   59.51778309
_cell_angle_gamma   116.01964496
_symmetry_Int_Tables_number   1
_chemical_formula_structural   AlCoO3
_chemical_formula_sum   'Al2 Co2 O6'
_cell_volume   93.23910261
_cell_formula_units_Z   2
loop_
 _symmetry_equiv_pos_site_id
 _symmetry_equiv_pos_as_xyz
  1  'x, y, z'
loop_
 _atom_site_type_symbol
 _atom_site_label
 _atom_site_symmetry_multiplicity
 _atom_site_fract_x
 _atom_site_fract_y
 _atom_site_fract_z
 _atom_site_occupancy
  Al  Al1  1  0.308940  0.455898  0.844867  1.0
  Al  Al2  1  0.699758  0.549023  0.150701  1.0
  Co  Co3  1  0.304229  0.947692  0.344651  1.0
  Co  Co4  1  0.698048  0.064874  0.662270  1.0
  O  O5  1  0.799533  0.737020  0.757677  1.0
  O  O6  1  0.811614  0.256345  0.956236  1.0
  O  O7  1  0.490377  0.733019  0.434746  1.0
  O  O8  1  0.501269  0.273064  0.562799  1.0
  O  O9  1  0.188624  0.735522  0.040019  1.0
  O  O10  1  0.197609  0.247542  0.246033  1.0
