# generated using pymatgen
data_HoGa3
_symmetry_space_group_name_H-M   'P 1'
_cell_length_a   6.25055745
_cell_length_b   6.25055810
_cell_length_c   4.58462361
_cell_angle_alpha   90.00000000
_cell_angle_beta   90.00000000
_cell_angle_gamma   120.00000212
_symmetry_Int_Tables_number   1
_chemical_formula_structural   HoGa3
_chemical_formula_sum   'Ho2 Ga6'
_cell_volume   155.12145034
_cell_formula_units_Z   2
loop_
 _symmetry_equiv_pos_site_id
 _symmetry_equiv_pos_as_xyz
  1  'x, y, z'
loop_
 _atom_site_type_symbol
 _atom_site_label
 _atom_site_symmetry_multiplicity
 _atom_site_fract_x
 _atom_site_fract_y
 _atom_site_fract_z
 _atom_site_occupancy
  Ho  Ho1  1  0.333333  0.666666  0.750001  1.0
  Ho  Ho2  1  0.666668  0.333334  0.249999  1.0
  Ga  Ga3  1  0.149533  0.299066  0.249999  1.0
  Ga  Ga4  1  0.700936  0.850468  0.249999  1.0
  Ga  Ga5  1  0.149533  0.850468  0.249999  1.0
  Ga  Ga6  1  0.850468  0.700934  0.750001  1.0
  Ga  Ga7  1  0.299066  0.149532  0.750001  1.0
  Ga  Ga8  1  0.850466  0.149532  0.750001  1.0
