# generated using pymatgen
data_TeMoWSeS2
_symmetry_space_group_name_H-M   'P 1'
_cell_length_a   3.31114264
_cell_length_b   3.31117880
_cell_length_c   37.64059776
_cell_angle_alpha   90.00034428
_cell_angle_beta   90.00000000
_cell_angle_gamma   119.99963880
_symmetry_Int_Tables_number   1
_chemical_formula_structural   TeMoWSeS2
_chemical_formula_sum   'Te2 Mo2 W2 Se2 S4'
_cell_volume   357.39563741
_cell_formula_units_Z   2
loop_
 _symmetry_equiv_pos_site_id
 _symmetry_equiv_pos_as_xyz
  1  'x, y, z'
loop_
 _atom_site_type_symbol
 _atom_site_label
 _atom_site_symmetry_multiplicity
 _atom_site_fract_x
 _atom_site_fract_y
 _atom_site_fract_z
 _atom_site_occupancy
  Te  Te1  1  0.333363  0.666727  0.708625  1.0
  Te  Te2  1  0.333351  0.666703  0.606461  1.0
  Mo  Mo3  1  0.333311  0.666621  0.093918  1.0
  Mo  Mo4  1  0.333299  0.666598  0.469652  1.0
  W  W5  1  0.666688  0.333375  0.281798  1.0
  W  W6  1  0.666690  0.333380  0.657565  1.0
  Se  Se7  1  0.333355  0.666711  0.326645  1.0
  Se  Se8  1  0.333347  0.666695  0.236936  1.0
  S  S9  1  0.666646  0.333292  0.053337  1.0
  S  S10  1  0.666653  0.333305  0.429073  1.0
  S  S11  1  0.666642  0.333283  0.134507  1.0
  S  S12  1  0.666655  0.333308  0.510230  1.0
