# generated using pymatgen
data_CsPbBr3
_symmetry_space_group_name_H-M   'P 1'
_cell_length_a   8.44711362
_cell_length_b   8.44711362
_cell_length_c   8.45961130
_cell_angle_alpha   119.95114216
_cell_angle_beta   119.95114216
_cell_angle_gamma   90.00000000
_symmetry_Int_Tables_number   1
_chemical_formula_structural   CsPbBr3
_chemical_formula_sum   'Cs2 Pb2 Br6'
_cell_volume   427.45683176
_cell_formula_units_Z   2
loop_
 _symmetry_equiv_pos_site_id
 _symmetry_equiv_pos_as_xyz
  1  'x, y, z'
loop_
 _atom_site_type_symbol
 _atom_site_label
 _atom_site_symmetry_multiplicity
 _atom_site_fract_x
 _atom_site_fract_y
 _atom_site_fract_z
 _atom_site_occupancy
  Cs  Cs1  1  0.250000  0.750000  0.500000  1.0
  Cs  Cs2  1  0.750000  0.250000  0.500000  1.0
  Pb  Pb3  1  0.000000  0.000000  0.000000  1.0
  Pb  Pb4  1  0.500000  0.500000  0.000000  1.0
  Br  Br5  1  0.250000  0.250000  0.500000  1.0
  Br  Br6  1  0.750000  0.750000  0.500000  1.0
  Br  Br7  1  0.219231  0.719231  0.000000  1.0
  Br  Br8  1  0.780769  0.280769  0.000000  1.0
  Br  Br9  1  0.280769  0.219231  0.000000  1.0
  Br  Br10  1  0.719231  0.780769  0.000000  1.0
