# generated using pymatgen
data_Hf3ZnN
_symmetry_space_group_name_H-M   'P 1'
_cell_length_a   3.31740416
_cell_length_b   11.28782350
_cell_length_c   8.82765771
_cell_angle_alpha   90.00000000
_cell_angle_beta   90.00000000
_cell_angle_gamma   90.00000000
_symmetry_Int_Tables_number   1
_chemical_formula_structural   Hf3ZnN
_chemical_formula_sum   'Hf12 Zn4 N4'
_cell_volume   330.56287735
_cell_formula_units_Z   4
loop_
 _symmetry_equiv_pos_site_id
 _symmetry_equiv_pos_as_xyz
  1  'x, y, z'
loop_
 _atom_site_type_symbol
 _atom_site_label
 _atom_site_symmetry_multiplicity
 _atom_site_fract_x
 _atom_site_fract_y
 _atom_site_fract_z
 _atom_site_occupancy
  Hf  Hf1  1  0.500000  0.872183  0.954199  1.0
  Hf  Hf2  1  0.000000  0.627817  0.454199  1.0
  Hf  Hf3  1  0.000000  0.627817  0.045801  1.0
  Hf  Hf4  1  0.500000  0.872183  0.545801  1.0
  Hf  Hf5  1  0.500000  0.545255  0.750000  1.0
  Hf  Hf6  1  0.000000  0.954745  0.250000  1.0
  Hf  Hf7  1  0.000000  0.372183  0.954199  1.0
  Hf  Hf8  1  0.500000  0.127817  0.454199  1.0
  Hf  Hf9  1  0.500000  0.127817  0.045801  1.0
  Hf  Hf10  1  0.000000  0.372183  0.545801  1.0
  Hf  Hf11  1  0.000000  0.045255  0.750000  1.0
  Hf  Hf12  1  0.500000  0.454745  0.250000  1.0
  Zn  Zn13  1  0.000000  0.745878  0.750000  1.0
  Zn  Zn14  1  0.500000  0.754122  0.250000  1.0
  Zn  Zn15  1  0.500000  0.245878  0.750000  1.0
  Zn  Zn16  1  0.000000  0.254122  0.250000  1.0
  N  N17  1  0.500000  0.500000  0.000000  1.0
  N  N18  1  0.500000  0.500000  0.500000  1.0
  N  N19  1  0.000000  0.000000  0.000000  1.0
  N  N20  1  0.000000  0.000000  0.500000  1.0
