# generated using pymatgen
data_CaMg6Nb
_symmetry_space_group_name_H-M   'P 1'
_cell_length_a   6.36483709
_cell_length_b   8.98959361
_cell_length_c   4.56750052
_cell_angle_alpha   90.00000000
_cell_angle_beta   90.00000000
_cell_angle_gamma   134.92592829
_symmetry_Int_Tables_number   1
_chemical_formula_structural   CaMg6Nb
_chemical_formula_sum   'Ca1 Mg6 Nb1'
_cell_volume   185.03406402
_cell_formula_units_Z   1
loop_
 _symmetry_equiv_pos_site_id
 _symmetry_equiv_pos_as_xyz
  1  'x, y, z'
loop_
 _atom_site_type_symbol
 _atom_site_label
 _atom_site_symmetry_multiplicity
 _atom_site_fract_x
 _atom_site_fract_y
 _atom_site_fract_z
 _atom_site_occupancy
  Ca  Ca1  1  0.245414  0.372706  0.250000  1.0
  Mg  Mg2  1  0.750964  0.378059  0.250000  1.0
  Mg  Mg3  1  0.750964  0.872904  0.250000  1.0
  Mg  Mg4  1  0.250984  0.104429  0.750000  1.0
  Mg  Mg5  1  0.250984  0.646556  0.750000  1.0
  Mg  Mg6  1  0.709309  0.104655  0.750000  1.0
  Mg  Mg7  1  0.790391  0.645196  0.750000  1.0
  Nb  Nb8  1  0.250989  0.875494  0.250000  1.0
