# generated using pymatgen
data_CaMg6Zr
_symmetry_space_group_name_H-M   'P 1'
_cell_length_a   6.47285485
_cell_length_b   9.13390423
_cell_length_c   4.66217859
_cell_angle_alpha   90.00000000
_cell_angle_beta   90.00000000
_cell_angle_gamma   134.87437141
_symmetry_Int_Tables_number   1
_chemical_formula_structural   CaMg6Zr
_chemical_formula_sum   'Ca1 Mg6 Zr1'
_cell_volume   195.33334765
_cell_formula_units_Z   1
loop_
 _symmetry_equiv_pos_site_id
 _symmetry_equiv_pos_as_xyz
  1  'x, y, z'
loop_
 _atom_site_type_symbol
 _atom_site_label
 _atom_site_symmetry_multiplicity
 _atom_site_fract_x
 _atom_site_fract_y
 _atom_site_fract_z
 _atom_site_occupancy
  Ca  Ca1  1  0.249913  0.374956  0.250000  1.0
  Mg  Mg2  1  0.750176  0.375356  0.250000  1.0
  Mg  Mg3  1  0.750176  0.874819  0.250000  1.0
  Mg  Mg4  1  0.250346  0.109901  0.750000  1.0
  Mg  Mg5  1  0.250346  0.640446  0.750000  1.0
  Mg  Mg6  1  0.722668  0.111335  0.750000  1.0
  Mg  Mg7  1  0.776839  0.638420  0.750000  1.0
  Zr  Zr8  1  0.249535  0.874768  0.250000  1.0
