# generated using pymatgen
data_LiCoS2
_symmetry_space_group_name_H-M   'P 1'
_cell_length_a   3.41810192
_cell_length_b   6.51510543
_cell_length_c   3.41810182
_cell_angle_alpha   105.20784168
_cell_angle_beta   60.00000872
_cell_angle_gamma   105.20784032
_symmetry_Int_Tables_number   1
_chemical_formula_structural   LiCoS2
_chemical_formula_sum   'Li1 Co1 S2'
_cell_volume   62.82389295
_cell_formula_units_Z   1
loop_
 _symmetry_equiv_pos_site_id
 _symmetry_equiv_pos_as_xyz
  1  'x, y, z'
loop_
 _atom_site_type_symbol
 _atom_site_label
 _atom_site_symmetry_multiplicity
 _atom_site_fract_x
 _atom_site_fract_y
 _atom_site_fract_z
 _atom_site_occupancy
  Li  Li1  1  0.144964  0.434892  0.144964  1.0
  Co  Co2  1  0.001335  0.004005  0.001335  1.0
  S  S3  1  0.274448  0.823344  0.274448  1.0
  S  S4  1  0.732254  0.196761  0.732254  1.0
