# generated using pymatgen
data_CdCO3
_symmetry_space_group_name_H-M   'P 1'
_cell_length_a   7.95958322
_cell_length_b   7.95958346
_cell_length_c   7.95958348
_cell_angle_alpha   32.55508293
_cell_angle_beta   32.55508172
_cell_angle_gamma   32.55508230
_symmetry_Int_Tables_number   1
_chemical_formula_structural   CdCO3
_chemical_formula_sum   'Cd2 C2 O6'
_cell_volume   129.85251313
_cell_formula_units_Z   2
loop_
 _symmetry_equiv_pos_site_id
 _symmetry_equiv_pos_as_xyz
  1  'x, y, z'
loop_
 _atom_site_type_symbol
 _atom_site_label
 _atom_site_symmetry_multiplicity
 _atom_site_fract_x
 _atom_site_fract_y
 _atom_site_fract_z
 _atom_site_occupancy
  Cd  Cd1  1  0.000000  0.000000  0.000000  1.0
  Cd  Cd2  1  0.500000  0.500000  0.500000  1.0
  C  C3  1  0.250000  0.250000  0.250000  1.0
  C  C4  1  0.750000  0.750000  0.750000  1.0
  O  O5  1  0.250000  0.750000  0.750000  1.0
  O  O6  1  0.750000  0.250000  0.250000  1.0
  O  O7  1  0.250000  0.750000  0.250000  1.0
  O  O8  1  0.250000  0.250000  0.750000  1.0
  O  O9  1  0.750000  0.250000  0.750000  1.0
  O  O10  1  0.750000  0.750000  0.250000  1.0
