# generated using pymatgen
data_FeOF
_symmetry_space_group_name_H-M   'P 1'
_cell_length_a   3.91739964
_cell_length_b   6.87307206
_cell_length_c   3.09944043
_cell_angle_alpha   90.00005095
_cell_angle_beta   90.00002089
_cell_angle_gamma   90.00031224
_symmetry_Int_Tables_number   1
_chemical_formula_structural   FeOF
_chemical_formula_sum   'Fe2 O2 F2'
_cell_volume   83.45110086
_cell_formula_units_Z   2
loop_
 _symmetry_equiv_pos_site_id
 _symmetry_equiv_pos_as_xyz
  1  'x, y, z'
loop_
 _atom_site_type_symbol
 _atom_site_label
 _atom_site_symmetry_multiplicity
 _atom_site_fract_x
 _atom_site_fract_y
 _atom_site_fract_z
 _atom_site_occupancy
  Fe  Fe1  1  0.250003  0.135213  0.749998  1.0
  Fe  Fe2  1  0.749999  0.864785  0.250003  1.0
  O  O3  1  0.250000  0.928676  0.249999  1.0
  O  O4  1  0.750001  0.071322  0.750000  1.0
  F  F5  1  0.249999  0.316991  0.249999  1.0
  F  F6  1  0.749998  0.683012  0.750002  1.0
