# generated using pymatgen
data_LiCo3O4
_symmetry_space_group_name_H-M   'P 1'
_cell_length_a   5.99301763
_cell_length_b   2.99422178
_cell_length_c   6.00620937
_cell_angle_alpha   60.21717699
_cell_angle_beta   91.20919527
_cell_angle_gamma   120.85137171
_symmetry_Int_Tables_number   1
_chemical_formula_structural   LiCo3O4
_chemical_formula_sum   'Li1 Co3 O4'
_cell_volume   76.25653379
_cell_formula_units_Z   1
loop_
 _symmetry_equiv_pos_site_id
 _symmetry_equiv_pos_as_xyz
  1  'x, y, z'
loop_
 _atom_site_type_symbol
 _atom_site_label
 _atom_site_symmetry_multiplicity
 _atom_site_fract_x
 _atom_site_fract_y
 _atom_site_fract_z
 _atom_site_occupancy
  Li  Li1  1  0.000061  0.999459  0.500303  1.0
  Co  Co2  1  0.000037  0.999364  0.000322  1.0
  Co  Co3  1  0.500041  0.999375  0.000323  1.0
  Co  Co4  1  0.500039  0.999367  0.500325  1.0
  O  O5  1  0.267423  0.040295  0.234513  1.0
  O  O6  1  0.743876  0.996162  0.241512  1.0
  O  O7  1  0.256191  0.002529  0.759145  1.0
  O  O8  1  0.732648  0.958425  0.766137  1.0
