# generated using pymatgen
data_Li2VO2F
_symmetry_space_group_name_H-M   'P 1'
_cell_length_a   2.92799895
_cell_length_b   5.22323902
_cell_length_c   4.19996485
_cell_angle_alpha   113.35732391
_cell_angle_beta   89.99673341
_cell_angle_gamma   73.72866188
_symmetry_Int_Tables_number   1
_chemical_formula_structural   Li2VO2F
_chemical_formula_sum   'Li2 V1 O2 F1'
_cell_volume   56.15495842
_cell_formula_units_Z   1
loop_
 _symmetry_equiv_pos_site_id
 _symmetry_equiv_pos_as_xyz
  1  'x, y, z'
loop_
 _atom_site_type_symbol
 _atom_site_label
 _atom_site_symmetry_multiplicity
 _atom_site_fract_x
 _atom_site_fract_y
 _atom_site_fract_z
 _atom_site_occupancy
  Li  Li1  1  0.690753  0.618579  0.310433  1.0
  Li  Li2  1  0.309247  0.381421  0.689567  1.0
  V  V3  1  0.000000  0.000000  0.000000  1.0
  O  O4  1  0.348947  0.302176  0.152053  1.0
  O  O5  1  0.651053  0.697824  0.847947  1.0
  F  F6  1  0.000000  0.000000  0.500000  1.0
