# generated using pymatgen
data_LiNi3O3F
_symmetry_space_group_name_H-M   'P 1'
_cell_length_a   2.96235845
_cell_length_b   2.96236397
_cell_length_c   8.52389478
_cell_angle_alpha   89.99998439
_cell_angle_beta   89.99992378
_cell_angle_gamma   90.00003228
_symmetry_Int_Tables_number   1
_chemical_formula_structural   LiNi3O3F
_chemical_formula_sum   'Li1 Ni3 O3 F1'
_cell_volume   74.80215412
_cell_formula_units_Z   1
loop_
 _symmetry_equiv_pos_site_id
 _symmetry_equiv_pos_as_xyz
  1  'x, y, z'
loop_
 _atom_site_type_symbol
 _atom_site_label
 _atom_site_symmetry_multiplicity
 _atom_site_fract_x
 _atom_site_fract_y
 _atom_site_fract_z
 _atom_site_occupancy
  Li  Li1  1  0.500000  0.500000  0.750022  1.0
  Ni  Ni2  1  0.000000  0.000004  0.004442  1.0
  Ni  Ni3  1  0.499999  0.499997  0.249977  1.0
  Ni  Ni4  1  0.999999  0.000001  0.495572  1.0
  O  O5  1  0.500000  0.500000  0.000008  1.0
  O  O6  1  0.000001  0.999997  0.249990  1.0
  O  O7  1  0.500001  0.500001  0.499977  1.0
  F  F8  1  0.000000  0.000000  0.750014  1.0
