# generated using pymatgen
data_SrNb2O4
_symmetry_space_group_name_H-M   'P 1'
_cell_length_a   5.15161593
_cell_length_b   12.61506309
_cell_length_c   5.95432732
_cell_angle_alpha   90.00000000
_cell_angle_beta   90.00000000
_cell_angle_gamma   90.00000000
_symmetry_Int_Tables_number   1
_chemical_formula_structural   SrNb2O4
_chemical_formula_sum   'Sr4 Nb8 O16'
_cell_volume   386.95958553
_cell_formula_units_Z   4
loop_
 _symmetry_equiv_pos_site_id
 _symmetry_equiv_pos_as_xyz
  1  'x, y, z'
loop_
 _atom_site_type_symbol
 _atom_site_label
 _atom_site_symmetry_multiplicity
 _atom_site_fract_x
 _atom_site_fract_y
 _atom_site_fract_z
 _atom_site_occupancy
  Sr  Sr1  1  0.303687  0.003780  0.250000  1.0
  Sr  Sr2  1  0.303687  0.496220  0.750000  1.0
  Sr  Sr3  1  0.696314  0.503780  0.250000  1.0
  Sr  Sr4  1  0.696314  0.996220  0.750000  1.0
  Nb  Nb5  1  0.155974  0.250000  0.000000  1.0
  Nb  Nb6  1  0.155974  0.250000  0.500000  1.0
  Nb  Nb7  1  0.341233  0.747078  0.250000  1.0
  Nb  Nb8  1  0.341233  0.752922  0.750000  1.0
  Nb  Nb9  1  0.658767  0.247078  0.250000  1.0
  Nb  Nb10  1  0.658767  0.252922  0.750000  1.0
  Nb  Nb11  1  0.844026  0.750000  0.000000  1.0
  Nb  Nb12  1  0.844026  0.750000  0.500000  1.0
  O  O13  1  0.010635  0.645134  0.250000  1.0
  O  O14  1  0.010635  0.854866  0.750000  1.0
  O  O15  1  0.010624  0.851616  0.250000  1.0
  O  O16  1  0.010624  0.648384  0.750000  1.0
  O  O17  1  0.492260  0.143627  0.504603  1.0
  O  O18  1  0.492260  0.143627  0.995397  1.0
  O  O19  1  0.492260  0.356373  0.004603  1.0
  O  O20  1  0.492260  0.356373  0.495397  1.0
  O  O21  1  0.507740  0.643627  0.504603  1.0
  O  O22  1  0.507740  0.856373  0.004603  1.0
  O  O23  1  0.507740  0.856373  0.495397  1.0
  O  O24  1  0.507740  0.643627  0.995397  1.0
  O  O25  1  0.989376  0.148384  0.750000  1.0
  O  O26  1  0.989376  0.351616  0.250000  1.0
  O  O27  1  0.989365  0.145134  0.250000  1.0
  O  O28  1  0.989365  0.354866  0.750000  1.0
