# generated using pymatgen
data_Na3Mg
_symmetry_space_group_name_H-M   'P 1'
_cell_length_a   6.29191579
_cell_length_b   6.29191579
_cell_length_c   6.29191579
_cell_angle_alpha   133.75596797
_cell_angle_beta   133.75596797
_cell_angle_gamma   67.46941284
_symmetry_Int_Tables_number   1
_chemical_formula_structural   Na3Mg
_chemical_formula_sum   'Na3 Mg1'
_cell_volume   127.77131678
_cell_formula_units_Z   1
loop_
 _symmetry_equiv_pos_site_id
 _symmetry_equiv_pos_as_xyz
  1  'x, y, z'
loop_
 _atom_site_type_symbol
 _atom_site_label
 _atom_site_symmetry_multiplicity
 _atom_site_fract_x
 _atom_site_fract_y
 _atom_site_fract_z
 _atom_site_occupancy
  Na  Na1  1  0.500000  0.500000  0.000000  1.0
  Na  Na2  1  0.749998  0.249999  0.499999  1.0
  Na  Na3  1  0.249999  0.749998  0.499999  1.0
  Mg  Mg4  1  0.000000  0.000000  0.000000  1.0
