# generated using pymatgen
data_ScInO3
_symmetry_space_group_name_H-M   'P 1'
_cell_length_a   3.46635131
_cell_length_b   3.46644992
_cell_length_c   12.74871060
_cell_angle_alpha   89.99965237
_cell_angle_beta   89.99954219
_cell_angle_gamma   119.99864653
_symmetry_Int_Tables_number   1
_chemical_formula_structural   ScInO3
_chemical_formula_sum   'Sc2 In2 O6'
_cell_volume   132.66621026
_cell_formula_units_Z   2
loop_
 _symmetry_equiv_pos_site_id
 _symmetry_equiv_pos_as_xyz
  1  'x, y, z'
loop_
 _atom_site_type_symbol
 _atom_site_label
 _atom_site_symmetry_multiplicity
 _atom_site_fract_x
 _atom_site_fract_y
 _atom_site_fract_z
 _atom_site_occupancy
  Sc  Sc1  1  0.333292  0.666572  0.750004  1.0
  Sc  Sc2  1  0.666670  0.333299  0.249998  1.0
  In  In3  1  0.000005  0.000430  0.000002  1.0
  In  In4  1  0.000059  0.999758  0.499996  1.0
  O  O5  1  0.999995  0.999904  0.250005  1.0
  O  O6  1  0.999978  0.999933  0.749997  1.0
  O  O7  1  0.333318  0.666509  0.582367  1.0
  O  O8  1  0.333310  0.666724  0.917629  1.0
  O  O9  1  0.666696  0.333249  0.417620  1.0
  O  O10  1  0.666677  0.333423  0.082382  1.0
