# generated using pymatgen
data_Fe11Co5
_symmetry_space_group_name_H-M   'P 1'
_cell_length_a   5.71169324
_cell_length_b   5.71169162
_cell_length_c   5.70587857
_cell_angle_alpha   90.00001154
_cell_angle_beta   90.00003312
_cell_angle_gamma   90.00004153
_symmetry_Int_Tables_number   1
_chemical_formula_structural   Fe11Co5
_chemical_formula_sum   'Fe11 Co5'
_cell_volume   186.14533248
_cell_formula_units_Z   1
loop_
 _symmetry_equiv_pos_site_id
 _symmetry_equiv_pos_as_xyz
  1  'x, y, z'
loop_
 _atom_site_type_symbol
 _atom_site_label
 _atom_site_symmetry_multiplicity
 _atom_site_fract_x
 _atom_site_fract_y
 _atom_site_fract_z
 _atom_site_occupancy
  Fe  Fe1  1  0.249742  0.249742  0.249850  1.0
  Fe  Fe2  1  0.249742  0.750258  0.750150  1.0
  Fe  Fe3  1  0.750258  0.249742  0.249850  1.0
  Fe  Fe4  1  0.750258  0.249742  0.750149  1.0
  Fe  Fe5  1  0.500000  0.500000  0.000000  1.0
  Fe  Fe6  1  0.249742  0.750258  0.249851  1.0
  Fe  Fe7  1  0.249742  0.249742  0.750149  1.0
  Fe  Fe8  1  0.750258  0.750258  0.249850  1.0
  Fe  Fe9  1  0.500000  0.500000  0.500000  1.0
  Fe  Fe10  1  0.000000  0.000000  0.500000  1.0
  Fe  Fe11  1  0.750258  0.750258  0.750150  1.0
  Co  Co12  1  0.500000  0.000000  0.000000  1.0
  Co  Co13  1  0.000000  0.500000  0.500000  1.0
  Co  Co14  1  0.000000  0.500000  0.000000  1.0
  Co  Co15  1  0.000000  0.000000  0.000000  1.0
  Co  Co16  1  0.500000  0.000000  0.500000  1.0
