# generated using pymatgen
data_LiNi3O4
_symmetry_space_group_name_H-M   'P 1'
_cell_length_a   5.13158037
_cell_length_b   10.20817927
_cell_length_c   9.78042641
_cell_angle_alpha   16.64516756
_cell_angle_beta   29.53582929
_cell_angle_gamma   33.53069391
_symmetry_Int_Tables_number   1
_chemical_formula_structural   LiNi3O4
_chemical_formula_sum   'Li1 Ni3 O4'
_cell_volume   72.34608757
_cell_formula_units_Z   1
loop_
 _symmetry_equiv_pos_site_id
 _symmetry_equiv_pos_as_xyz
  1  'x, y, z'
loop_
 _atom_site_type_symbol
 _atom_site_label
 _atom_site_symmetry_multiplicity
 _atom_site_fract_x
 _atom_site_fract_y
 _atom_site_fract_z
 _atom_site_occupancy
  Li  Li1  1  0.500000  0.500000  0.500000  1.0
  Ni  Ni2  1  0.000000  0.000000  0.000000  1.0
  Ni  Ni3  1  0.500000  0.000000  0.500000  1.0
  Ni  Ni4  1  0.000000  0.500000  0.000000  1.0
  O  O5  1  0.231395  0.000000  0.268284  1.0
  O  O6  1  0.247821  0.500000  0.250783  1.0
  O  O7  1  0.768605  0.000000  0.731716  1.0
  O  O8  1  0.752179  0.500000  0.749217  1.0
