# generated using pymatgen
data_Li2FeP2O7
_symmetry_space_group_name_H-M   'P 1'
_cell_length_a   8.05975246
_cell_length_b   5.16341932
_cell_length_c   14.31414908
_cell_angle_alpha   90.00000000
_cell_angle_beta   112.11143993
_cell_angle_gamma   90.00000000
_symmetry_Int_Tables_number   1
_chemical_formula_structural   Li2FeP2O7
_chemical_formula_sum   'Li8 Fe4 P8 O28'
_cell_volume   551.88457822
_cell_formula_units_Z   4
loop_
 _symmetry_equiv_pos_site_id
 _symmetry_equiv_pos_as_xyz
  1  'x, y, z'
loop_
 _atom_site_type_symbol
 _atom_site_label
 _atom_site_symmetry_multiplicity
 _atom_site_fract_x
 _atom_site_fract_y
 _atom_site_fract_z
 _atom_site_occupancy
  Li  Li1  1  0.030023  0.788146  0.676825  1.0
  Li  Li2  1  0.030023  0.711854  0.176825  1.0
  Li  Li3  1  0.574506  0.251484  0.838345  1.0
  Li  Li4  1  0.425494  0.751484  0.661655  1.0
  Li  Li5  1  0.574506  0.248516  0.338345  1.0
  Li  Li6  1  0.425494  0.748516  0.161655  1.0
  Li  Li7  1  0.969977  0.288146  0.823175  1.0
  Li  Li8  1  0.969977  0.211854  0.323175  1.0
  Fe  Fe9  1  0.279299  0.716522  0.878564  1.0
  Fe  Fe10  1  0.279299  0.783478  0.378564  1.0
  Fe  Fe11  1  0.720701  0.216522  0.621436  1.0
  Fe  Fe12  1  0.720701  0.283478  0.121436  1.0
  P  P13  1  0.185135  0.283539  0.693279  1.0
  P  P14  1  0.294221  0.280484  0.522454  1.0
  P  P15  1  0.185135  0.216461  0.193279  1.0
  P  P16  1  0.705779  0.780484  0.977546  1.0
  P  P17  1  0.294221  0.219516  0.022454  1.0
  P  P18  1  0.814865  0.783539  0.806721  1.0
  P  P19  1  0.705779  0.719516  0.477546  1.0
  P  P20  1  0.814865  0.716461  0.306721  1.0
  O  O21  1  0.003729  0.748385  0.804961  1.0
  O  O22  1  0.003729  0.751615  0.304961  1.0
  O  O23  1  0.206275  0.344298  0.919034  1.0
  O  O24  1  0.148191  0.233436  0.574940  1.0
  O  O25  1  0.248236  0.566551  0.716341  1.0
  O  O26  1  0.319130  0.084060  0.757464  1.0
  O  O27  1  0.320692  0.574370  0.517542  1.0
  O  O28  1  0.206275  0.155702  0.419034  1.0
  O  O29  1  0.148191  0.266564  0.074940  1.0
  O  O30  1  0.537867  0.635218  0.908382  1.0
  O  O31  1  0.248236  0.933449  0.216341  1.0
  O  O32  1  0.319130  0.415940  0.257464  1.0
  O  O33  1  0.462133  0.135218  0.591618  1.0
  O  O34  1  0.320692  0.925630  0.017542  1.0
  O  O35  1  0.679308  0.074370  0.982458  1.0
  O  O36  1  0.537867  0.864782  0.408382  1.0
  O  O37  1  0.680870  0.584060  0.742536  1.0
  O  O38  1  0.751764  0.066551  0.783659  1.0
  O  O39  1  0.462133  0.364782  0.091618  1.0
  O  O40  1  0.851809  0.733436  0.925060  1.0
  O  O41  1  0.793725  0.844298  0.580966  1.0
  O  O42  1  0.679308  0.425630  0.482458  1.0
  O  O43  1  0.680870  0.915940  0.242536  1.0
  O  O44  1  0.751764  0.433449  0.283659  1.0
  O  O45  1  0.851809  0.766564  0.425060  1.0
  O  O46  1  0.793725  0.655702  0.080966  1.0
  O  O47  1  0.996271  0.248385  0.695039  1.0
  O  O48  1  0.996271  0.251615  0.195039  1.0
