# generated using pymatgen
data_Rb2CoO3
_symmetry_space_group_name_H-M   'P 1'
_cell_length_a   6.72103455
_cell_length_b   6.72103455
_cell_length_c   13.34539633
_cell_angle_alpha   90.00000000
_cell_angle_beta   90.00000000
_cell_angle_gamma   52.49899173
_symmetry_Int_Tables_number   1
_chemical_formula_structural   Rb2CoO3
_chemical_formula_sum   'Rb8 Co4 O12'
_cell_volume   478.26050927
_cell_formula_units_Z   4
loop_
 _symmetry_equiv_pos_site_id
 _symmetry_equiv_pos_as_xyz
  1  'x, y, z'
loop_
 _atom_site_type_symbol
 _atom_site_label
 _atom_site_symmetry_multiplicity
 _atom_site_fract_x
 _atom_site_fract_y
 _atom_site_fract_z
 _atom_site_occupancy
  Rb  Rb1  1  0.059018  0.059018  0.140450  1.0
  Rb  Rb2  1  0.136546  0.136546  0.576306  1.0
  Rb  Rb3  1  0.363454  0.363454  0.076306  1.0
  Rb  Rb4  1  0.559018  0.559018  0.359550  1.0
  Rb  Rb5  1  0.940982  0.940982  0.859550  1.0
  Rb  Rb6  1  0.440982  0.440982  0.640450  1.0
  Rb  Rb7  1  0.636546  0.636546  0.923694  1.0
  Rb  Rb8  1  0.863454  0.863454  0.423694  1.0
  Co  Co9  1  0.243438  0.243438  0.329310  1.0
  Co  Co10  1  0.743438  0.743438  0.170690  1.0
  Co  Co11  1  0.256562  0.256562  0.829310  1.0
  Co  Co12  1  0.756562  0.756562  0.670690  1.0
  O  O13  1  0.028922  0.528922  0.250000  1.0
  O  O14  1  0.471078  0.971078  0.750000  1.0
  O  O15  1  0.100667  0.100667  0.359881  1.0
  O  O16  1  0.331616  0.331616  0.435921  1.0
  O  O17  1  0.668384  0.668384  0.564079  1.0
  O  O18  1  0.831616  0.831616  0.064079  1.0
  O  O19  1  0.168384  0.168384  0.935921  1.0
  O  O20  1  0.600667  0.600667  0.140119  1.0
  O  O21  1  0.399333  0.399333  0.859881  1.0
  O  O22  1  0.899333  0.899333  0.640119  1.0
  O  O23  1  0.528922  0.028922  0.250000  1.0
  O  O24  1  0.971078  0.471078  0.750000  1.0
