# generated using pymatgen
data_Rb2O
_symmetry_space_group_name_H-M   'P 1'
_cell_length_a   4.32497518
_cell_length_b   6.44257039
_cell_length_c   4.32497508
_cell_angle_alpha   109.61243544
_cell_angle_beta   59.99999923
_cell_angle_gamma   109.61243562
_symmetry_Int_Tables_number   1
_chemical_formula_structural   Rb2O
_chemical_formula_sum   'Rb2 O1'
_cell_volume   96.20780215
_cell_formula_units_Z   1
loop_
 _symmetry_equiv_pos_site_id
 _symmetry_equiv_pos_as_xyz
  1  'x, y, z'
loop_
 _atom_site_type_symbol
 _atom_site_label
 _atom_site_symmetry_multiplicity
 _atom_site_fract_x
 _atom_site_fract_y
 _atom_site_fract_z
 _atom_site_occupancy
  Rb  Rb1  1  0.261801  0.785403  0.261801  1.0
  Rb  Rb2  1  0.738199  0.214597  0.738199  1.0
  O  O3  1  0.000000  0.000000  0.000000  1.0
