# generated using pymatgen
data_KTmO2
_symmetry_space_group_name_H-M   'P 1'
_cell_length_a   3.42369875
_cell_length_b   6.54420133
_cell_length_c   3.42369877
_cell_angle_alpha   105.16399040
_cell_angle_beta   60.00000030
_cell_angle_gamma   105.16399033
_symmetry_Int_Tables_number   1
_chemical_formula_structural   KTmO2
_chemical_formula_sum   'K1 Tm1 O2'
_cell_volume   63.32926101
_cell_formula_units_Z   1
loop_
 _symmetry_equiv_pos_site_id
 _symmetry_equiv_pos_as_xyz
  1  'x, y, z'
loop_
 _atom_site_type_symbol
 _atom_site_label
 _atom_site_symmetry_multiplicity
 _atom_site_fract_x
 _atom_site_fract_y
 _atom_site_fract_z
 _atom_site_occupancy
  K  K1  1  0.000000  0.000000  0.000000  1.0
  Tm  Tm2  1  0.500000  0.500000  0.500000  1.0
  O  O3  1  0.227714  0.683140  0.227714  1.0
  O  O4  1  0.772286  0.316860  0.772286  1.0
