# generated using pymatgen
data_LiFePO4
_symmetry_space_group_name_H-M   'P 1'
_cell_length_a   10.33047762
_cell_length_b   6.86097889
_cell_length_c   5.12852251
_cell_angle_alpha   90.00570175
_cell_angle_beta   90.00245180
_cell_angle_gamma   89.99117966
_symmetry_Int_Tables_number   1
_chemical_formula_structural   LiFePO4
_chemical_formula_sum   'Li4 Fe4 P4 O16'
_cell_volume   363.49525215
_cell_formula_units_Z   4
loop_
 _symmetry_equiv_pos_site_id
 _symmetry_equiv_pos_as_xyz
  1  'x, y, z'
loop_
 _atom_site_type_symbol
 _atom_site_label
 _atom_site_symmetry_multiplicity
 _atom_site_fract_x
 _atom_site_fract_y
 _atom_site_fract_z
 _atom_site_occupancy
  Li  Li1  1  0.147592  0.501410  0.244403  1.0
  Li  Li2  1  0.352531  0.001452  0.744280  1.0
  Li  Li3  1  0.647480  0.998586  0.244412  1.0
  Li  Li4  1  0.852548  0.498583  0.744351  1.0
  Fe  Fe5  1  0.161930  0.001653  0.245914  1.0
  Fe  Fe6  1  0.337997  0.501693  0.746263  1.0
  Fe  Fe7  1  0.661893  0.498363  0.245951  1.0
  Fe  Fe8  1  0.837977  0.998370  0.746152  1.0
  P  P9  1  0.097070  0.755350  0.749632  1.0
  P  P10  1  0.402944  0.255419  0.249479  1.0
  P  P11  1  0.597103  0.744555  0.749587  1.0
  P  P12  1  0.902914  0.244643  0.249440  1.0
  O  O13  1  0.051255  0.243430  0.199622  1.0
  O  O14  1  0.126870  0.750645  0.047687  1.0
  O  O15  1  0.154487  0.569254  0.622268  1.0
  O  O16  1  0.162740  0.941482  0.636531  1.0
  O  O17  1  0.337185  0.441641  0.136593  1.0
  O  O18  1  0.345442  0.069495  0.122003  1.0
  O  O19  1  0.373259  0.250901  0.547538  1.0
  O  O20  1  0.448785  0.743329  0.699517  1.0
  O  O21  1  0.551182  0.256605  0.199558  1.0
  O  O22  1  0.626781  0.749305  0.047608  1.0
  O  O23  1  0.654432  0.930737  0.622327  1.0
  O  O24  1  0.662759  0.558445  0.636542  1.0
  O  O25  1  0.837240  0.058345  0.136536  1.0
  O  O26  1  0.845480  0.430553  0.122139  1.0
  O  O27  1  0.873294  0.249111  0.547498  1.0
  O  O28  1  0.948830  0.756647  0.699569  1.0
