# generated using pymatgen
data_CsTmO2
_symmetry_space_group_name_H-M   'P 1'
_cell_length_a   3.50569236
_cell_length_b   3.50568806
_cell_length_c   13.69877277
_cell_angle_alpha   89.99750421
_cell_angle_beta   90.00165489
_cell_angle_gamma   119.99996565
_symmetry_Int_Tables_number   1
_chemical_formula_structural   CsTmO2
_chemical_formula_sum   'Cs2 Tm2 O4'
_cell_volume   145.80066844
_cell_formula_units_Z   2
loop_
 _symmetry_equiv_pos_site_id
 _symmetry_equiv_pos_as_xyz
  1  'x, y, z'
loop_
 _atom_site_type_symbol
 _atom_site_label
 _atom_site_symmetry_multiplicity
 _atom_site_fract_x
 _atom_site_fract_y
 _atom_site_fract_z
 _atom_site_occupancy
  Cs  Cs1  1  0.333324  0.666618  0.750002  1.0
  Cs  Cs2  1  0.666688  0.333306  0.250002  1.0
  Tm  Tm3  1  0.999978  0.999967  0.000000  1.0
  Tm  Tm4  1  0.999996  0.000053  0.500001  1.0
  O  O5  1  0.333339  0.666732  0.419026  1.0
  O  O6  1  0.333326  0.666620  0.080972  1.0
  O  O7  1  0.666684  0.333374  0.580971  1.0
  O  O8  1  0.666665  0.333330  0.919025  1.0
