# generated using pymatgen
data_Sr2MgH6
_symmetry_space_group_name_H-M   'P 1'
_cell_length_a   5.49244523
_cell_length_b   5.49243274
_cell_length_c   4.20671320
_cell_angle_alpha   89.99973761
_cell_angle_beta   90.00047016
_cell_angle_gamma   120.00077575
_symmetry_Int_Tables_number   1
_chemical_formula_structural   Sr2MgH6
_chemical_formula_sum   'Sr2 Mg1 H6'
_cell_volume   109.90074164
_cell_formula_units_Z   1
loop_
 _symmetry_equiv_pos_site_id
 _symmetry_equiv_pos_as_xyz
  1  'x, y, z'
loop_
 _atom_site_type_symbol
 _atom_site_label
 _atom_site_symmetry_multiplicity
 _atom_site_fract_x
 _atom_site_fract_y
 _atom_site_fract_z
 _atom_site_occupancy
  Sr  Sr1  1  0.666663  0.333330  0.262588  1.0
  Sr  Sr2  1  0.333337  0.666670  0.737412  1.0
  Mg  Mg3  1  0.000000  0.000000  0.000000  1.0
  H  H4  1  0.822515  0.645040  0.764867  1.0
  H  H5  1  0.822513  0.177473  0.764867  1.0
  H  H6  1  0.354958  0.177479  0.764864  1.0
  H  H7  1  0.177485  0.354960  0.235133  1.0
  H  H8  1  0.177487  0.822527  0.235133  1.0
  H  H9  1  0.645042  0.822521  0.235136  1.0
