# generated using pymatgen
data_BaTiO3
_symmetry_space_group_name_H-M   'P 1'
_cell_length_a   3.78421043
_cell_length_b   5.55577612
_cell_length_c   5.55577612
_cell_angle_alpha   107.26414998
_cell_angle_beta   90.00000000
_cell_angle_gamma   90.00000000
_symmetry_Int_Tables_number   1
_chemical_formula_structural   BaTiO3
_chemical_formula_sum   'Ba1 Ti1 O3'
_cell_volume   111.54339921
_cell_formula_units_Z   1
loop_
 _symmetry_equiv_pos_site_id
 _symmetry_equiv_pos_as_xyz
  1  'x, y, z'
loop_
 _atom_site_type_symbol
 _atom_site_label
 _atom_site_symmetry_multiplicity
 _atom_site_fract_x
 _atom_site_fract_y
 _atom_site_fract_z
 _atom_site_occupancy
  Ba  Ba1  1  0.000000  0.644134  0.644134  1.0
  Ti  Ti2  1  0.500000  0.105801  0.105801  1.0
  O  O3  1  0.500000  0.382081  0.382081  1.0
  O  O4  1  0.500000  0.099021  0.788963  1.0
  O  O5  1  0.500000  0.788963  0.099021  1.0
