# generated using pymatgen
data_BN
_symmetry_space_group_name_H-M   'P 1'
_cell_length_a   2.59146384
_cell_length_b   4.29204891
_cell_length_c   4.88008902
_cell_angle_alpha   90.00000000
_cell_angle_beta   90.00000000
_cell_angle_gamma   90.00000000
_symmetry_Int_Tables_number   1
_chemical_formula_structural   BN
_chemical_formula_sum   'B4 N4'
_cell_volume   54.27971514
_cell_formula_units_Z   4
loop_
 _symmetry_equiv_pos_site_id
 _symmetry_equiv_pos_as_xyz
  1  'x, y, z'
loop_
 _atom_site_type_symbol
 _atom_site_label
 _atom_site_symmetry_multiplicity
 _atom_site_fract_x
 _atom_site_fract_y
 _atom_site_fract_z
 _atom_site_occupancy
  B  B1  1  0.750000  0.092904  0.659587  1.0
  B  B2  1  0.250000  0.592904  0.840413  1.0
  B  B3  1  0.750000  0.407096  0.159587  1.0
  B  B4  1  0.250000  0.907096  0.340413  1.0
  N  N5  1  0.750000  0.393514  0.821130  1.0
  N  N6  1  0.250000  0.606486  0.178870  1.0
  N  N7  1  0.250000  0.893514  0.678870  1.0
  N  N8  1  0.750000  0.106486  0.321130  1.0
