# generated using pymatgen
data_Mn3CoO8
_symmetry_space_group_name_H-M   'P 1'
_cell_length_a   5.72246298
_cell_length_b   5.72246298
_cell_length_c   5.72246298
_cell_angle_alpha   61.25249853
_cell_angle_beta   61.25249853
_cell_angle_gamma   61.25249853
_symmetry_Int_Tables_number   1
_chemical_formula_structural   Mn3CoO8
_chemical_formula_sum   'Mn3 Co1 O8'
_cell_volume   136.23737723
_cell_formula_units_Z   1
loop_
 _symmetry_equiv_pos_site_id
 _symmetry_equiv_pos_as_xyz
  1  'x, y, z'
loop_
 _atom_site_type_symbol
 _atom_site_label
 _atom_site_symmetry_multiplicity
 _atom_site_fract_x
 _atom_site_fract_y
 _atom_site_fract_z
 _atom_site_occupancy
  Mn  Mn1  1  0.500000  0.000000  0.500000  1.0
  Mn  Mn2  1  0.500000  0.500000  0.000000  1.0
  Mn  Mn3  1  0.000000  0.500000  0.500000  1.0
  Co  Co4  1  0.500000  0.500000  0.500000  1.0
  O  O5  1  0.263236  0.263236  0.263236  1.0
  O  O6  1  0.705218  0.267432  0.267432  1.0
  O  O7  1  0.267432  0.705218  0.267432  1.0
  O  O8  1  0.267432  0.267432  0.705218  1.0
  O  O9  1  0.732568  0.732568  0.294782  1.0
  O  O10  1  0.732568  0.294782  0.732568  1.0
  O  O11  1  0.294782  0.732568  0.732568  1.0
  O  O12  1  0.736764  0.736764  0.736764  1.0
