# generated using pymatgen
data_CeSmO2
_symmetry_space_group_name_H-M   'P 1'
_cell_length_a   3.50824073
_cell_length_b   6.11813240
_cell_length_c   3.50824043
_cell_angle_alpha   106.66099525
_cell_angle_beta   60.00000647
_cell_angle_gamma   106.66099416
_symmetry_Int_Tables_number   1
_chemical_formula_structural   CeSmO2
_chemical_formula_sum   'Ce1 Sm1 O2'
_cell_volume   61.53472817
_cell_formula_units_Z   1
loop_
 _symmetry_equiv_pos_site_id
 _symmetry_equiv_pos_as_xyz
  1  'x, y, z'
loop_
 _atom_site_type_symbol
 _atom_site_label
 _atom_site_symmetry_multiplicity
 _atom_site_fract_x
 _atom_site_fract_y
 _atom_site_fract_z
 _atom_site_occupancy
  Ce  Ce1  1  0.000000  0.000000  0.000000  1.0
  Sm  Sm2  1  0.500000  0.500000  0.500000  1.0
  O  O3  1  0.247755  0.743265  0.247755  1.0
  O  O4  1  0.752245  0.256735  0.752245  1.0
