# generated using pymatgen
data_CsErO2
_symmetry_space_group_name_H-M   'P 1'
_cell_length_a   3.51984480
_cell_length_b   3.51980087
_cell_length_c   13.69796764
_cell_angle_alpha   89.99933249
_cell_angle_beta   89.99982481
_cell_angle_gamma   119.99993599
_symmetry_Int_Tables_number   1
_chemical_formula_structural   CsErO2
_chemical_formula_sum   'Cs2 Er2 O4'
_cell_volume   146.96998728
_cell_formula_units_Z   2
loop_
 _symmetry_equiv_pos_site_id
 _symmetry_equiv_pos_as_xyz
  1  'x, y, z'
loop_
 _atom_site_type_symbol
 _atom_site_label
 _atom_site_symmetry_multiplicity
 _atom_site_fract_x
 _atom_site_fract_y
 _atom_site_fract_z
 _atom_site_occupancy
  Cs  Cs1  1  0.333318  0.666660  0.750004  1.0
  Cs  Cs2  1  0.666695  0.333338  0.249999  1.0
  Er  Er3  1  0.999934  0.999961  0.999988  1.0
  Er  Er4  1  0.000055  0.999935  0.500008  1.0
  O  O5  1  0.333358  0.666736  0.418465  1.0
  O  O6  1  0.333288  0.666619  0.081532  1.0
  O  O7  1  0.666716  0.333415  0.581558  1.0
  O  O8  1  0.666636  0.333336  0.918447  1.0
