# generated using pymatgen
data_K
_symmetry_space_group_name_H-M   'P 1'
_cell_length_a   4.70553519
_cell_length_b   4.70553465
_cell_length_c   15.28008428
_cell_angle_alpha   90.00000000
_cell_angle_beta   90.00000000
_cell_angle_gamma   120.00000374
_symmetry_Int_Tables_number   1
_chemical_formula_structural   K
_chemical_formula_sum   K4
_cell_volume   293.00455129
_cell_formula_units_Z   4
loop_
 _symmetry_equiv_pos_site_id
 _symmetry_equiv_pos_as_xyz
  1  'x, y, z'
loop_
 _atom_site_type_symbol
 _atom_site_label
 _atom_site_symmetry_multiplicity
 _atom_site_fract_x
 _atom_site_fract_y
 _atom_site_fract_z
 _atom_site_occupancy
  K  K1  1  0.000000  0.000000  0.000000  1.0
  K  K2  1  0.333333  0.666667  0.750000  1.0
  K  K3  1  0.000000  0.000000  0.500000  1.0
  K  K4  1  0.666667  0.333333  0.250000  1.0
