# generated using pymatgen
data_SmAgO2
_symmetry_space_group_name_H-M   'P 1'
_cell_length_a   3.65857700
_cell_length_b   3.65865764
_cell_length_c   12.53514738
_cell_angle_alpha   90.00160467
_cell_angle_beta   89.99936262
_cell_angle_gamma   119.99886643
_symmetry_Int_Tables_number   1
_chemical_formula_structural   SmAgO2
_chemical_formula_sum   'Sm2 Ag2 O4'
_cell_volume   145.31117302
_cell_formula_units_Z   2
loop_
 _symmetry_equiv_pos_site_id
 _symmetry_equiv_pos_as_xyz
  1  'x, y, z'
loop_
 _atom_site_type_symbol
 _atom_site_label
 _atom_site_symmetry_multiplicity
 _atom_site_fract_x
 _atom_site_fract_y
 _atom_site_fract_z
 _atom_site_occupancy
  Sm  Sm1  1  0.000024  0.000072  0.999986  1.0
  Sm  Sm2  1  0.999987  0.999942  0.500008  1.0
  Ag  Ag3  1  0.333333  0.666707  0.250001  1.0
  Ag  Ag4  1  0.666665  0.333339  0.750001  1.0
  O  O5  1  0.333323  0.666694  0.084222  1.0
  O  O6  1  0.333316  0.666699  0.415780  1.0
  O  O7  1  0.666676  0.333397  0.584242  1.0
  O  O8  1  0.666675  0.333348  0.915760  1.0
