# generated using pymatgen
data_CsDyO2
_symmetry_space_group_name_H-M   'P 1'
_cell_length_a   3.56171284
_cell_length_b   3.56171781
_cell_length_c   13.74971956
_cell_angle_alpha   89.99793453
_cell_angle_beta   90.00107505
_cell_angle_gamma   120.00027130
_symmetry_Int_Tables_number   1
_chemical_formula_structural   CsDyO2
_chemical_formula_sum   'Cs2 Dy2 O4'
_cell_volume   151.05729183
_cell_formula_units_Z   2
loop_
 _symmetry_equiv_pos_site_id
 _symmetry_equiv_pos_as_xyz
  1  'x, y, z'
loop_
 _atom_site_type_symbol
 _atom_site_label
 _atom_site_symmetry_multiplicity
 _atom_site_fract_x
 _atom_site_fract_y
 _atom_site_fract_z
 _atom_site_occupancy
  Cs  Cs1  1  0.333289  0.666585  0.750001  1.0
  Cs  Cs2  1  0.666710  0.333307  0.249999  1.0
  Dy  Dy3  1  0.000004  0.000001  0.000001  1.0
  Dy  Dy4  1  0.000000  0.000014  0.500000  1.0
  O  O5  1  0.333326  0.666726  0.417782  1.0
  O  O6  1  0.333331  0.666640  0.082218  1.0
  O  O7  1  0.666667  0.333372  0.582219  1.0
  O  O8  1  0.666674  0.333355  0.917782  1.0
