# generated using pymatgen
data_AgAuO3
_symmetry_space_group_name_H-M   'P 1'
_cell_length_a   7.28592655
_cell_length_b   7.28592655
_cell_length_c   7.28592655
_cell_angle_alpha   60.00000000
_cell_angle_beta   90.00000000
_cell_angle_gamma   120.00000000
_symmetry_Int_Tables_number   1
_chemical_formula_structural   AgAuO3
_chemical_formula_sum   'Ag4 Au4 O12'
_cell_volume   273.48868842
_cell_formula_units_Z   4
loop_
 _symmetry_equiv_pos_site_id
 _symmetry_equiv_pos_as_xyz
  1  'x, y, z'
loop_
 _atom_site_type_symbol
 _atom_site_label
 _atom_site_symmetry_multiplicity
 _atom_site_fract_x
 _atom_site_fract_y
 _atom_site_fract_z
 _atom_site_occupancy
  Ag  Ag1  1  0.000000  0.000000  0.000000  1.0
  Ag  Ag2  1  0.500000  0.500000  0.000000  1.0
  Ag  Ag3  1  0.000000  0.500000  0.000000  1.0
  Ag  Ag4  1  0.000000  0.000000  0.500000  1.0
  Au  Au5  1  0.500000  0.000000  0.000000  1.0
  Au  Au6  1  0.500000  0.000000  0.500000  1.0
  Au  Au7  1  0.500000  0.500000  0.500000  1.0
  Au  Au8  1  0.000000  0.500000  0.500000  1.0
  O  O9  1  0.841287  0.250000  0.408713  1.0
  O  O10  1  0.591287  0.182574  0.158713  1.0
  O  O11  1  0.591287  0.750000  0.158713  1.0
  O  O12  1  0.841287  0.250000  0.841287  1.0
  O  O13  1  0.408713  0.250000  0.408713  1.0
  O  O14  1  0.841287  0.682574  0.408713  1.0
  O  O15  1  0.591287  0.750000  0.591287  1.0
  O  O16  1  0.158713  0.750000  0.158713  1.0
  O  O17  1  0.158713  0.317426  0.591287  1.0
  O  O18  1  0.408713  0.250000  0.841287  1.0
  O  O19  1  0.408713  0.817426  0.841287  1.0
  O  O20  1  0.158713  0.750000  0.591287  1.0
