# generated using pymatgen
data_CsHoO2
_symmetry_space_group_name_H-M   'P 1'
_cell_length_a   3.54414574
_cell_length_b   3.54418765
_cell_length_c   13.75339950
_cell_angle_alpha   89.99813046
_cell_angle_beta   90.00160917
_cell_angle_gamma   120.00080938
_symmetry_Int_Tables_number   1
_chemical_formula_structural   CsHoO2
_chemical_formula_sum   'Cs2 Ho2 O4'
_cell_volume   149.61165526
_cell_formula_units_Z   2
loop_
 _symmetry_equiv_pos_site_id
 _symmetry_equiv_pos_as_xyz
  1  'x, y, z'
loop_
 _atom_site_type_symbol
 _atom_site_label
 _atom_site_symmetry_multiplicity
 _atom_site_fract_x
 _atom_site_fract_y
 _atom_site_fract_z
 _atom_site_occupancy
  Cs  Cs1  1  0.333296  0.666604  0.750000  1.0
  Cs  Cs2  1  0.666707  0.333302  0.250000  1.0
  Ho  Ho3  1  0.000001  0.000017  0.000001  1.0
  Ho  Ho4  1  0.000003  0.000025  0.499999  1.0
  O  O5  1  0.333311  0.666672  0.418194  1.0
  O  O6  1  0.333321  0.666671  0.081810  1.0
  O  O7  1  0.666689  0.333341  0.581806  1.0
  O  O8  1  0.666673  0.333369  0.918190  1.0
