# generated using pymatgen
data_AlInO3
_symmetry_space_group_name_H-M   'P 1'
_cell_length_a   3.28372987
_cell_length_b   3.28373287
_cell_length_c   12.02348447
_cell_angle_alpha   90.00043018
_cell_angle_beta   89.99987202
_cell_angle_gamma   60.00360284
_symmetry_Int_Tables_number   1
_chemical_formula_structural   AlInO3
_chemical_formula_sum   'Al2 In2 O6'
_cell_volume   112.28247781
_cell_formula_units_Z   2
loop_
 _symmetry_equiv_pos_site_id
 _symmetry_equiv_pos_as_xyz
  1  'x, y, z'
loop_
 _atom_site_type_symbol
 _atom_site_label
 _atom_site_symmetry_multiplicity
 _atom_site_fract_x
 _atom_site_fract_y
 _atom_site_fract_z
 _atom_site_occupancy
  Al  Al1  1  0.333269  0.333422  0.249998  1.0
  Al  Al2  1  0.666588  0.666718  0.749999  1.0
  In  In3  1  0.000802  0.999190  0.000004  1.0
  In  In4  1  0.999352  0.000661  0.499982  1.0
  O  O5  1  0.999940  0.000070  0.250010  1.0
  O  O6  1  0.999937  0.000049  0.750010  1.0
  O  O7  1  0.332911  0.333776  0.407799  1.0
  O  O8  1  0.333917  0.332767  0.092201  1.0
  O  O9  1  0.666242  0.667076  0.592186  1.0
  O  O10  1  0.667240  0.666071  0.907814  1.0
