# generated using pymatgen
data_CoSnO3
_symmetry_space_group_name_H-M   'P 1'
_cell_length_a   5.35668762
_cell_length_b   5.66829066
_cell_length_c   5.35668813
_cell_angle_alpha   118.19758079
_cell_angle_beta   59.99999712
_cell_angle_gamma   118.19757333
_symmetry_Int_Tables_number   1
_chemical_formula_structural   CoSnO3
_chemical_formula_sum   'Co2 Sn2 O6'
_cell_volume   118.04272405
_cell_formula_units_Z   2
loop_
 _symmetry_equiv_pos_site_id
 _symmetry_equiv_pos_as_xyz
  1  'x, y, z'
loop_
 _atom_site_type_symbol
 _atom_site_label
 _atom_site_symmetry_multiplicity
 _atom_site_fract_x
 _atom_site_fract_y
 _atom_site_fract_z
 _atom_site_occupancy
  Co  Co1  1  0.358014  0.074041  0.358014  1.0
  Co  Co2  1  0.641986  0.925959  0.641986  1.0
  Sn  Sn3  1  0.147324  0.441973  0.147324  1.0
  Sn  Sn4  1  0.852676  0.558027  0.852676  1.0
  O  O5  1  0.049516  0.254261  0.448426  1.0
  O  O6  1  0.448426  0.254261  0.756319  1.0
  O  O7  1  0.243681  0.745739  0.950484  1.0
  O  O8  1  0.756319  0.254261  0.049516  1.0
  O  O9  1  0.551574  0.745739  0.243681  1.0
  O  O10  1  0.950484  0.745739  0.551574  1.0
