# generated using pymatgen
data_ScGaO3
_symmetry_space_group_name_H-M   'P 1'
_cell_length_a   3.32561384
_cell_length_b   3.32554557
_cell_length_c   11.86469013
_cell_angle_alpha   90.00030724
_cell_angle_beta   89.99945981
_cell_angle_gamma   120.00026949
_symmetry_Int_Tables_number   1
_chemical_formula_structural   ScGaO3
_chemical_formula_sum   'Sc2 Ga2 O6'
_cell_volume   113.63721322
_cell_formula_units_Z   2
loop_
 _symmetry_equiv_pos_site_id
 _symmetry_equiv_pos_as_xyz
  1  'x, y, z'
loop_
 _atom_site_type_symbol
 _atom_site_label
 _atom_site_symmetry_multiplicity
 _atom_site_fract_x
 _atom_site_fract_y
 _atom_site_fract_z
 _atom_site_occupancy
  Sc  Sc1  1  0.999968  0.000138  0.000005  1.0
  Sc  Sc2  1  0.000006  0.000021  0.500002  1.0
  Ga  Ga3  1  0.333347  0.666651  0.249997  1.0
  Ga  Ga4  1  0.666666  0.333326  0.750001  1.0
  O  O5  1  0.333323  0.666710  0.083555  1.0
  O  O6  1  0.000010  0.999989  0.249998  1.0
  O  O7  1  0.333344  0.666651  0.416445  1.0
  O  O8  1  0.999995  0.999992  0.750000  1.0
  O  O9  1  0.666677  0.333339  0.583550  1.0
  O  O10  1  0.666665  0.333385  0.916448  1.0
