# generated using pymatgen
data_Y2MgNi2
_symmetry_space_group_name_H-M   'P 1'
_cell_length_a   7.36634175
_cell_length_b   7.36609194
_cell_length_c   3.73880902
_cell_angle_alpha   90.00000000
_cell_angle_beta   90.00000000
_cell_angle_gamma   90.08813304
_symmetry_Int_Tables_number   1
_chemical_formula_structural   Y2MgNi2
_chemical_formula_sum   'Y4 Mg2 Ni4'
_cell_volume   202.87183926
_cell_formula_units_Z   2
loop_
 _symmetry_equiv_pos_site_id
 _symmetry_equiv_pos_as_xyz
  1  'x, y, z'
loop_
 _atom_site_type_symbol
 _atom_site_label
 _atom_site_symmetry_multiplicity
 _atom_site_fract_x
 _atom_site_fract_y
 _atom_site_fract_z
 _atom_site_occupancy
  Y  Y1  1  0.173119  0.673114  0.500000  1.0
  Y  Y2  1  0.326849  0.173162  0.500000  1.0
  Y  Y3  1  0.673156  0.826881  0.500000  1.0
  Y  Y4  1  0.826872  0.326880  0.500000  1.0
  Mg  Mg5  1  0.999979  0.000004  0.000000  1.0
  Mg  Mg6  1  0.500007  0.499985  0.000000  1.0
  Ni  Ni7  1  0.120426  0.379611  0.000000  1.0
  Ni  Ni8  1  0.379690  0.879724  0.000000  1.0
  Ni  Ni9  1  0.620292  0.120269  0.000000  1.0
  Ni  Ni10  1  0.879628  0.620354  0.000000  1.0
