# generated using pymatgen
data_LiV3O4
_symmetry_space_group_name_H-M   'P 1'
_cell_length_a   5.31112403
_cell_length_b   6.10247194
_cell_length_c   6.16957711
_cell_angle_alpha   120.37727146
_cell_angle_beta   54.50936130
_cell_angle_gamma   150.52314599
_symmetry_Int_Tables_number   1
_chemical_formula_structural   LiV3O4
_chemical_formula_sum   'Li1 V3 O4'
_cell_volume   80.11479943
_cell_formula_units_Z   1
loop_
 _symmetry_equiv_pos_site_id
 _symmetry_equiv_pos_as_xyz
  1  'x, y, z'
loop_
 _atom_site_type_symbol
 _atom_site_label
 _atom_site_symmetry_multiplicity
 _atom_site_fract_x
 _atom_site_fract_y
 _atom_site_fract_z
 _atom_site_occupancy
  Li  Li1  1  0.999913  0.499950  0.000018  1.0
  V  V2  1  0.999906  0.499942  0.500015  1.0
  V  V3  1  0.999873  0.999911  0.000012  1.0
  V  V4  1  0.999880  0.999910  0.500011  1.0
  O  O5  1  0.500643  0.000708  0.738459  1.0
  O  O6  1  0.500001  0.499915  0.249908  1.0
  O  O7  1  0.499179  0.999195  0.261573  1.0
  O  O8  1  0.499761  0.499904  0.750111  1.0
