# generated using pymatgen
data_Li2CuBiO4
_symmetry_space_group_name_H-M   'P 1'
_cell_length_a   5.59373387
_cell_length_b   4.35058203
_cell_length_c   4.35058203
_cell_angle_alpha   90.00000017
_cell_angle_beta   67.11517334
_cell_angle_gamma   67.11517334
_symmetry_Int_Tables_number   1
_chemical_formula_structural   Li2CuBiO4
_chemical_formula_sum   'Li2 Cu1 Bi1 O4'
_cell_volume   88.42652332
_cell_formula_units_Z   1
loop_
 _symmetry_equiv_pos_site_id
 _symmetry_equiv_pos_as_xyz
  1  'x, y, z'
loop_
 _atom_site_type_symbol
 _atom_site_label
 _atom_site_symmetry_multiplicity
 _atom_site_fract_x
 _atom_site_fract_y
 _atom_site_fract_z
 _atom_site_occupancy
  Li  Li1  1  0.500000  0.750000  0.250000  1.0
  Li  Li2  1  0.000000  0.500000  0.500000  1.0
  Cu  Cu3  1  0.500000  0.250000  0.750000  1.0
  Bi  Bi4  1  0.000000  0.000000  0.000000  1.0
  O  O5  1  0.995874  0.002063  0.502063  1.0
  O  O6  1  0.476623  0.761688  0.761688  1.0
  O  O7  1  0.523377  0.238312  0.238312  1.0
  O  O8  1  0.004126  0.497937  0.997937  1.0
