# generated using pymatgen
data_K2ZnF4
_symmetry_space_group_name_H-M   'P 1'
_cell_length_a   4.14417028
_cell_length_b   4.14417027
_cell_length_c   7.24294494
_cell_angle_alpha   106.62360976
_cell_angle_beta   106.62360975
_cell_angle_gamma   90.00000000
_symmetry_Int_Tables_number   1
_chemical_formula_structural   K2ZnF4
_chemical_formula_sum   'K2 Zn1 F4'
_cell_volume   113.75610899
_cell_formula_units_Z   1
loop_
 _symmetry_equiv_pos_site_id
 _symmetry_equiv_pos_as_xyz
  1  'x, y, z'
loop_
 _atom_site_type_symbol
 _atom_site_label
 _atom_site_symmetry_multiplicity
 _atom_site_fract_x
 _atom_site_fract_y
 _atom_site_fract_z
 _atom_site_occupancy
  K  K1  1  0.354732  0.354732  0.709464  1.0
  K  K2  1  0.645268  0.645268  0.290536  1.0
  Zn  Zn3  1  0.000000  0.000000  0.000000  1.0
  F  F4  1  0.500000  0.000000  0.000000  1.0
  F  F5  1  0.000000  0.500000  0.000000  1.0
  F  F6  1  0.845098  0.845098  0.690196  1.0
  F  F7  1  0.154902  0.154902  0.309804  1.0
