# generated using pymatgen
data_Mg(ReO4)2
_symmetry_space_group_name_H-M   'P 1'
_cell_length_a   5.82011923
_cell_length_b   5.81978224
_cell_length_c   6.14706583
_cell_angle_alpha   90.00245339
_cell_angle_beta   89.99946011
_cell_angle_gamma   119.99856037
_symmetry_Int_Tables_number   1
_chemical_formula_structural   Mg(ReO4)2
_chemical_formula_sum   'Mg1 Re2 O8'
_cell_volume   180.31979784
_cell_formula_units_Z   1
loop_
 _symmetry_equiv_pos_site_id
 _symmetry_equiv_pos_as_xyz
  1  'x, y, z'
loop_
 _atom_site_type_symbol
 _atom_site_label
 _atom_site_symmetry_multiplicity
 _atom_site_fract_x
 _atom_site_fract_y
 _atom_site_fract_z
 _atom_site_occupancy
  Mg  Mg1  1  0.999989  0.999993  0.999990  1.0
  Re  Re2  1  0.333330  0.666684  0.288623  1.0
  Re  Re3  1  0.666641  0.333317  0.711403  1.0
  O  O4  1  0.203501  0.863814  0.194860  1.0
  O  O5  1  0.136205  0.339722  0.194886  1.0
  O  O6  1  0.333330  0.666698  0.570312  1.0
  O  O7  1  0.339661  0.203493  0.805117  1.0
  O  O8  1  0.660269  0.796504  0.194877  1.0
  O  O9  1  0.666619  0.333305  0.429725  1.0
  O  O10  1  0.863773  0.660287  0.805100  1.0
  O  O11  1  0.796481  0.136183  0.805105  1.0
