# generated using pymatgen
data_Zr2N2O
_symmetry_space_group_name_H-M   'P 1'
_cell_length_a   9.68123533
_cell_length_b   3.48892906
_cell_length_c   4.35149854
_cell_angle_alpha   90.04503660
_cell_angle_beta   73.68990703
_cell_angle_gamma   69.16909415
_symmetry_Int_Tables_number   1
_chemical_formula_structural   Zr2N2O
_chemical_formula_sum   'Zr4 N4 O2'
_cell_volume   131.01246867
_cell_formula_units_Z   2
loop_
 _symmetry_equiv_pos_site_id
 _symmetry_equiv_pos_as_xyz
  1  'x, y, z'
loop_
 _atom_site_type_symbol
 _atom_site_label
 _atom_site_symmetry_multiplicity
 _atom_site_fract_x
 _atom_site_fract_y
 _atom_site_fract_z
 _atom_site_occupancy
  Zr  Zr1  1  0.106740  0.631001  0.185132  1.0
  Zr  Zr2  1  0.670977  0.083252  0.448692  1.0
  Zr  Zr3  1  0.328145  0.918571  0.553306  1.0
  Zr  Zr4  1  0.892259  0.370563  0.816538  1.0
  N  N5  1  0.248476  0.995257  0.083333  1.0
  N  N6  1  0.899856  0.364092  0.313853  1.0
  N  N7  1  0.099050  0.635919  0.687897  1.0
  N  N8  1  0.750585  0.005721  0.918376  1.0
  O  O9  1  0.437762  0.310514  0.373814  1.0
  O  O10  1  0.561296  0.691357  0.628217  1.0
