# generated using pymatgen
data_YAl3O6
_symmetry_space_group_name_H-M   'P 1'
_cell_length_a   7.39284775
_cell_length_b   7.39284775
_cell_length_c   5.88754678
_cell_angle_alpha   65.26392040
_cell_angle_beta   65.26392040
_cell_angle_gamma   77.78849942
_symmetry_Int_Tables_number   1
_chemical_formula_structural   YAl3O6
_chemical_formula_sum   'Y2 Al6 O12'
_cell_volume   265.17946009
_cell_formula_units_Z   2
loop_
 _symmetry_equiv_pos_site_id
 _symmetry_equiv_pos_as_xyz
  1  'x, y, z'
loop_
 _atom_site_type_symbol
 _atom_site_label
 _atom_site_symmetry_multiplicity
 _atom_site_fract_x
 _atom_site_fract_y
 _atom_site_fract_z
 _atom_site_occupancy
  Y  Y1  1  0.261146  0.738854  0.250000  1.0
  Y  Y2  1  0.738854  0.261146  0.750000  1.0
  Al  Al3  1  0.208081  0.356891  0.189947  1.0
  Al  Al4  1  0.826754  0.173246  0.250000  1.0
  Al  Al5  1  0.356891  0.208081  0.689947  1.0
  Al  Al6  1  0.643109  0.791919  0.310053  1.0
  Al  Al7  1  0.173246  0.826754  0.750000  1.0
  Al  Al8  1  0.791919  0.643109  0.810053  1.0
  O  O9  1  0.387646  0.275130  0.933202  1.0
  O  O10  1  0.843834  0.386975  0.960846  1.0
  O  O11  1  0.787548  0.006786  0.125204  1.0
  O  O12  1  0.275130  0.387646  0.433202  1.0
  O  O13  1  0.993214  0.212452  0.374796  1.0
  O  O14  1  0.613025  0.156166  0.539154  1.0
  O  O15  1  0.386975  0.843834  0.460846  1.0
  O  O16  1  0.006786  0.787548  0.625204  1.0
  O  O17  1  0.724870  0.612354  0.566798  1.0
  O  O18  1  0.212452  0.993214  0.874796  1.0
  O  O19  1  0.156166  0.613025  0.039154  1.0
  O  O20  1  0.612354  0.724870  0.066798  1.0
