# generated using pymatgen
data_Li2CoSiO4
_symmetry_space_group_name_H-M   'P 1'
_cell_length_a   5.32048400
_cell_length_b   5.32046820
_cell_length_c   6.29724222
_cell_angle_alpha   89.44020332
_cell_angle_beta   90.56015994
_cell_angle_gamma   87.48156617
_symmetry_Int_Tables_number   1
_chemical_formula_structural   Li2CoSiO4
_chemical_formula_sum   'Li4 Co2 Si2 O8'
_cell_volume   178.06900259
_cell_formula_units_Z   2
loop_
 _symmetry_equiv_pos_site_id
 _symmetry_equiv_pos_as_xyz
  1  'x, y, z'
loop_
 _atom_site_type_symbol
 _atom_site_label
 _atom_site_symmetry_multiplicity
 _atom_site_fract_x
 _atom_site_fract_y
 _atom_site_fract_z
 _atom_site_occupancy
  Li  Li1  1  0.176427  0.176426  0.499999  1.0
  Li  Li2  1  0.318254  0.682121  0.739142  1.0
  Li  Li3  1  0.682121  0.318254  0.260857  1.0
  Li  Li4  1  0.823862  0.823862  0.499999  1.0
  Co  Co5  1  0.810939  0.810947  0.000000  1.0
  Co  Co6  1  0.189207  0.189199  0.999998  1.0
  Si  Si7  1  0.322065  0.678050  0.257002  1.0
  Si  Si8  1  0.678054  0.322066  0.742996  1.0
  O  O9  1  0.194253  0.805944  0.032388  1.0
  O  O10  1  0.195860  0.804583  0.464980  1.0
  O  O11  1  0.291274  0.369111  0.250067  1.0
  O  O12  1  0.369117  0.291270  0.749932  1.0
  O  O13  1  0.631163  0.708082  0.249955  1.0
  O  O14  1  0.708079  0.631166  0.750046  1.0
  O  O15  1  0.804586  0.195870  0.535015  1.0
  O  O16  1  0.805952  0.194263  0.967613  1.0
