# generated using pymatgen
data_NbNO
_symmetry_space_group_name_H-M   'P 1'
_cell_length_a   4.00873704
_cell_length_b   6.69418748
_cell_length_c   6.83714920
_cell_angle_alpha   74.41375252
_cell_angle_beta   90.00000000
_cell_angle_gamma   72.57727989
_symmetry_Int_Tables_number   1
_chemical_formula_structural   NbNO
_chemical_formula_sum   'Nb4 N4 O4'
_cell_volume   167.97419170
_cell_formula_units_Z   4
loop_
 _symmetry_equiv_pos_site_id
 _symmetry_equiv_pos_as_xyz
  1  'x, y, z'
loop_
 _atom_site_type_symbol
 _atom_site_label
 _atom_site_symmetry_multiplicity
 _atom_site_fract_x
 _atom_site_fract_y
 _atom_site_fract_z
 _atom_site_occupancy
  Nb  Nb1  1  0.104190  0.791619  0.712971  1.0
  Nb  Nb2  1  0.208500  0.583000  0.293527  1.0
  Nb  Nb3  1  0.791500  0.417000  0.706473  1.0
  Nb  Nb4  1  0.895810  0.208381  0.287029  1.0
  N  N5  1  0.639020  0.721962  0.730188  1.0
  N  N6  1  0.259287  0.481425  0.642403  1.0
  N  N7  1  0.740713  0.518575  0.357597  1.0
  N  N8  1  0.360980  0.278038  0.269812  1.0
  O  O9  1  0.056900  0.886201  0.376065  1.0
  O  O10  1  0.128271  0.743457  0.008978  1.0
  O  O11  1  0.871729  0.256543  0.991022  1.0
  O  O12  1  0.943100  0.113799  0.623935  1.0
