# generated using pymatgen
data_Al2O3
_symmetry_space_group_name_H-M   'P 1'
_cell_length_a   5.57054233
_cell_length_b   8.37093177
_cell_length_c   5.48333668
_cell_angle_alpha   90.00000000
_cell_angle_beta   58.24086418
_cell_angle_gamma   90.00000000
_symmetry_Int_Tables_number   1
_chemical_formula_structural   Al2O3
_chemical_formula_sum   'Al8 O12'
_cell_volume   217.40633061
_cell_formula_units_Z   4
loop_
 _symmetry_equiv_pos_site_id
 _symmetry_equiv_pos_as_xyz
  1  'x, y, z'
loop_
 _atom_site_type_symbol
 _atom_site_label
 _atom_site_symmetry_multiplicity
 _atom_site_fract_x
 _atom_site_fract_y
 _atom_site_fract_z
 _atom_site_occupancy
  Al  Al1  1  0.948226  0.042511  0.284421  1.0
  Al  Al2  1  0.948226  0.457489  0.784421  1.0
  Al  Al3  1  0.535784  0.343660  0.704589  1.0
  Al  Al4  1  0.464216  0.843660  0.795411  1.0
  Al  Al5  1  0.535784  0.156340  0.204589  1.0
  Al  Al6  1  0.464216  0.656340  0.295411  1.0
  Al  Al7  1  0.051774  0.542511  0.215579  1.0
  Al  Al8  1  0.051774  0.957489  0.715579  1.0
  O  O9  1  0.175460  0.108810  0.430202  1.0
  O  O10  1  0.318987  0.705266  0.081355  1.0
  O  O11  1  0.175460  0.391190  0.930202  1.0
  O  O12  1  0.249681  0.480876  0.421528  1.0
  O  O13  1  0.750319  0.980876  0.078472  1.0
  O  O14  1  0.318987  0.794734  0.581355  1.0
  O  O15  1  0.681013  0.205266  0.418645  1.0
  O  O16  1  0.249681  0.019124  0.921528  1.0
  O  O17  1  0.750319  0.519124  0.578472  1.0
  O  O18  1  0.824540  0.608810  0.069798  1.0
  O  O19  1  0.681013  0.294734  0.918645  1.0
  O  O20  1  0.824540  0.891190  0.569798  1.0
