# generated using pymatgen
data_Ba2LiN
_symmetry_space_group_name_H-M   'P 1'
_cell_length_a   8.26862660
_cell_length_b   8.26862660
_cell_length_c   15.50168586
_cell_angle_alpha   90.00000000
_cell_angle_beta   90.00000000
_cell_angle_gamma   90.00000000
_symmetry_Int_Tables_number   1
_chemical_formula_structural   Ba2LiN
_chemical_formula_sum   'Ba16 Li8 N8'
_cell_volume   1059.85314324
_cell_formula_units_Z   8
loop_
 _symmetry_equiv_pos_site_id
 _symmetry_equiv_pos_as_xyz
  1  'x, y, z'
loop_
 _atom_site_type_symbol
 _atom_site_label
 _atom_site_symmetry_multiplicity
 _atom_site_fract_x
 _atom_site_fract_y
 _atom_site_fract_z
 _atom_site_occupancy
  Ba  Ba1  1  0.750000  0.022571  0.660065  1.0
  Ba  Ba2  1  0.750000  0.477429  0.660065  1.0
  Ba  Ba3  1  0.530411  0.750000  0.855400  1.0
  Ba  Ba4  1  0.522571  0.250000  0.839935  1.0
  Ba  Ba5  1  0.250000  0.977429  0.339935  1.0
  Ba  Ba6  1  0.022571  0.750000  0.160065  1.0
  Ba  Ba7  1  0.750000  0.969589  0.355400  1.0
  Ba  Ba8  1  0.250000  0.522571  0.339935  1.0
  Ba  Ba9  1  0.030411  0.250000  0.144600  1.0
  Ba  Ba10  1  0.969589  0.750000  0.855400  1.0
  Ba  Ba11  1  0.750000  0.530411  0.355400  1.0
  Ba  Ba12  1  0.250000  0.469589  0.644600  1.0
  Ba  Ba13  1  0.977429  0.250000  0.839935  1.0
  Ba  Ba14  1  0.469589  0.250000  0.144600  1.0
  Ba  Ba15  1  0.477429  0.750000  0.160065  1.0
  Ba  Ba16  1  0.250000  0.030411  0.644600  1.0
  Li  Li17  1  0.493565  0.750000  0.468846  1.0
  Li  Li18  1  0.250000  0.506435  0.031154  1.0
  Li  Li19  1  0.750000  0.493565  0.968846  1.0
  Li  Li20  1  0.250000  0.993565  0.031154  1.0
  Li  Li21  1  0.506435  0.250000  0.531154  1.0
  Li  Li22  1  0.993565  0.250000  0.531154  1.0
  Li  Li23  1  0.750000  0.006435  0.968846  1.0
  Li  Li24  1  0.006435  0.750000  0.468846  1.0
  N  N25  1  0.006755  0.250000  0.661243  1.0
  N  N26  1  0.750000  0.506755  0.838757  1.0
  N  N27  1  0.493245  0.250000  0.661243  1.0
  N  N28  1  0.250000  0.493245  0.161243  1.0
  N  N29  1  0.993245  0.750000  0.338757  1.0
  N  N30  1  0.250000  0.006755  0.161243  1.0
  N  N31  1  0.750000  0.993245  0.838757  1.0
  N  N32  1  0.506755  0.750000  0.338757  1.0
