# generated using pymatgen
data_Ti2O3
_symmetry_space_group_name_H-M   'P 1'
_cell_length_a   13.33235886
_cell_length_b   3.00369070
_cell_length_c   7.66365959
_cell_angle_alpha   90.00000000
_cell_angle_beta   98.96210450
_cell_angle_gamma   90.00000000
_symmetry_Int_Tables_number   1
_chemical_formula_structural   Ti2O3
_chemical_formula_sum   'Ti12 O18'
_cell_volume   303.15430152
_cell_formula_units_Z   6
loop_
 _symmetry_equiv_pos_site_id
 _symmetry_equiv_pos_as_xyz
  1  'x, y, z'
loop_
 _atom_site_type_symbol
 _atom_site_label
 _atom_site_symmetry_multiplicity
 _atom_site_fract_x
 _atom_site_fract_y
 _atom_site_fract_z
 _atom_site_occupancy
  Ti  Ti1  1  0.018684  0.250000  0.193315  1.0
  Ti  Ti2  1  0.117477  0.250000  0.542818  1.0
  Ti  Ti3  1  0.219492  0.750000  0.159086  1.0
  Ti  Ti4  1  0.275166  0.750000  0.820204  1.0
  Ti  Ti5  1  0.399028  0.250000  0.489258  1.0
  Ti  Ti6  1  0.435827  0.250000  0.134082  1.0
  Ti  Ti7  1  0.564173  0.750000  0.865918  1.0
  Ti  Ti8  1  0.600972  0.750000  0.510742  1.0
  Ti  Ti9  1  0.724834  0.250000  0.179796  1.0
  Ti  Ti10  1  0.780508  0.250000  0.840914  1.0
  Ti  Ti11  1  0.882523  0.750000  0.457182  1.0
  Ti  Ti12  1  0.981316  0.750000  0.806685  1.0
  O  O13  1  0.033163  0.750000  0.385151  1.0
  O  O14  1  0.125119  0.750000  0.730201  1.0
  O  O15  1  0.075914  0.750000  0.050034  1.0
  O  O16  1  0.175843  0.250000  0.310064  1.0
  O  O17  1  0.284574  0.250000  0.639729  1.0
  O  O18  1  0.266042  0.250000  0.007727  1.0
  O  O19  1  0.421937  0.750000  0.946924  1.0
  O  O20  1  0.367316  0.750000  0.285477  1.0
  O  O21  1  0.471729  0.750000  0.631955  1.0
  O  O22  1  0.528271  0.250000  0.368045  1.0
  O  O23  1  0.632684  0.250000  0.714523  1.0
  O  O24  1  0.578063  0.250000  0.053076  1.0
  O  O25  1  0.733958  0.750000  0.992273  1.0
  O  O26  1  0.715426  0.750000  0.360271  1.0
  O  O27  1  0.824157  0.750000  0.689936  1.0
  O  O28  1  0.924086  0.250000  0.949966  1.0
  O  O29  1  0.874881  0.250000  0.269799  1.0
  O  O30  1  0.966837  0.250000  0.614849  1.0
