# generated using pymatgen
data_WO3
_symmetry_space_group_name_H-M   'P 1'
_cell_length_a   7.44900584
_cell_length_b   12.88674072
_cell_length_c   12.26335650
_cell_angle_alpha   70.93638031
_cell_angle_beta   92.19770072
_cell_angle_gamma   88.12479210
_symmetry_Int_Tables_number   1
_chemical_formula_structural   WO3
_chemical_formula_sum   'W14 O42'
_cell_volume   1110.54444651
_cell_formula_units_Z   14
loop_
 _symmetry_equiv_pos_site_id
 _symmetry_equiv_pos_as_xyz
  1  'x, y, z'
loop_
 _atom_site_type_symbol
 _atom_site_label
 _atom_site_symmetry_multiplicity
 _atom_site_fract_x
 _atom_site_fract_y
 _atom_site_fract_z
 _atom_site_occupancy
  W  W1  1  0.280800  0.259515  0.009180  1.0
  W  W2  1  0.280751  0.759553  0.509202  1.0
  W  W3  1  0.520278  0.496912  0.998991  1.0
  W  W4  1  0.520250  0.996928  0.499012  1.0
  W  W5  1  0.443329  0.987194  0.988235  1.0
  W  W6  1  0.443307  0.487185  0.488260  1.0
  W  W7  1  0.785953  0.514143  0.266865  1.0
  W  W8  1  0.785951  0.014134  0.766892  1.0
  W  W9  1  0.725410  0.740658  0.991491  1.0
  W  W10  1  0.725423  0.240606  0.491550  1.0
  W  W11  1  0.020159  0.502343  0.007033  1.0
  W  W12  1  0.020119  0.002340  0.507050  1.0
  W  W13  1  0.209814  0.991515  0.237461  1.0
  W  W14  1  0.209831  0.491506  0.737500  1.0
  O  O15  1  0.464465  0.833865  0.548223  1.0
  O  O16  1  0.464511  0.333858  0.048250  1.0
  O  O17  1  0.948172  0.057159  0.845961  1.0
  O  O18  1  0.948173  0.557182  0.345999  1.0
  O  O19  1  0.947492  0.976583  0.661144  1.0
  O  O20  1  0.947519  0.476593  0.161201  1.0
  O  O21  1  0.083728  0.846045  0.536752  1.0
  O  O22  1  0.083749  0.346060  0.036780  1.0
  O  O23  1  0.238750  0.338317  0.851203  1.0
  O  O24  1  0.238737  0.838296  0.351201  1.0
  O  O25  1  0.258626  0.025927  0.536703  1.0
  O  O26  1  0.258664  0.525915  0.036741  1.0
  O  O27  1  0.247630  0.948045  0.936854  1.0
  O  O28  1  0.247619  0.448057  0.436820  1.0
  O  O29  1  0.225353  0.648328  0.648110  1.0
  O  O30  1  0.225336  0.148322  0.148115  1.0
  O  O31  1  0.419396  0.515231  0.852016  1.0
  O  O32  1  0.419360  0.015250  0.351982  1.0
  O  O33  1  0.396819  0.144255  0.969235  1.0
  O  O34  1  0.396814  0.644239  0.469216  1.0
  O  O35  1  0.408757  0.462628  0.649308  1.0
  O  O36  1  0.408755  0.962621  0.149343  1.0
  O  O37  1  0.586309  0.036684  0.856294  1.0
  O  O38  1  0.586304  0.536694  0.356285  1.0
  O  O39  1  0.586235  0.350208  0.530110  1.0
  O  O40  1  0.586271  0.850180  0.030134  1.0
  O  O41  1  0.580519  0.988198  0.650896  1.0
  O  O42  1  0.580554  0.488187  0.150947  1.0
  O  O43  1  0.783795  0.856996  0.858313  1.0
  O  O44  1  0.783821  0.357032  0.358303  1.0
  O  O45  1  0.754667  0.165338  0.649819  1.0
  O  O46  1  0.754684  0.665311  0.149879  1.0
  O  O47  1  0.758482  0.473053  0.969393  1.0
  O  O48  1  0.758444  0.973067  0.469364  1.0
  O  O49  1  0.929953  0.655656  0.971811  1.0
  O  O50  1  0.929927  0.155675  0.471778  1.0
  O  O51  1  0.056836  0.527811  0.847012  1.0
  O  O52  1  0.056807  0.027811  0.346978  1.0
  O  O53  1  0.036074  0.462885  0.654183  1.0
  O  O54  1  0.036098  0.962868  0.154173  1.0
  O  O55  1  0.552221  0.663856  0.946587  1.0
  O  O56  1  0.552199  0.163885  0.446562  1.0
