# generated using pymatgen
data_CaAl2(SiO4)2
_symmetry_space_group_name_H-M   'P 1'
_cell_length_a   8.86444869
_cell_length_b   9.57458282
_cell_length_c   8.23906929
_cell_angle_alpha   82.41181668
_cell_angle_beta   84.65632734
_cell_angle_gamma   89.58405401
_symmetry_Int_Tables_number   1
_chemical_formula_structural   CaAl2(SiO4)2
_chemical_formula_sum   'Ca4 Al8 Si8 O32'
_cell_volume   690.13264942
_cell_formula_units_Z   4
loop_
 _symmetry_equiv_pos_site_id
 _symmetry_equiv_pos_as_xyz
  1  'x, y, z'
loop_
 _atom_site_type_symbol
 _atom_site_label
 _atom_site_symmetry_multiplicity
 _atom_site_fract_x
 _atom_site_fract_y
 _atom_site_fract_z
 _atom_site_occupancy
  Ca  Ca1  1  0.078450  0.000894  0.231796  1.0
  Ca  Ca2  1  0.418787  0.423886  0.309628  1.0
  Ca  Ca3  1  0.581213  0.576114  0.690372  1.0
  Ca  Ca4  1  0.921550  0.999106  0.768204  1.0
  Al  Al5  1  0.439650  0.189151  0.999048  1.0
  Al  Al6  1  0.067734  0.690391  0.119456  1.0
  Al  Al7  1  0.773135  0.451674  0.388572  1.0
  Al  Al8  1  0.278576  0.055454  0.524470  1.0
  Al  Al9  1  0.721424  0.944546  0.475530  1.0
  Al  Al10  1  0.226865  0.548326  0.611428  1.0
  Al  Al11  1  0.932266  0.309609  0.880544  1.0
  Al  Al12  1  0.560350  0.810849  0.000952  1.0
  Si  Si13  1  0.737982  0.055150  0.095943  1.0
  Si  Si14  1  0.755461  0.546680  0.024202  1.0
  Si  Si15  1  0.055305  0.293934  0.499403  1.0
  Si  Si16  1  0.430197  0.793944  0.393445  1.0
  Si  Si17  1  0.569803  0.206056  0.606555  1.0
  Si  Si18  1  0.944695  0.706066  0.500597  1.0
  Si  Si19  1  0.244539  0.453320  0.975798  1.0
  Si  Si20  1  0.262018  0.944850  0.904057  1.0
  O  O21  1  0.284809  0.067679  0.023608  1.0
  O  O22  1  0.887310  0.141384  0.996373  1.0
  O  O23  1  0.366813  0.346019  0.067397  1.0
  O  O24  1  0.583765  0.141453  0.126640  1.0
  O  O25  1  0.217973  0.570050  0.104062  1.0
  O  O26  1  0.904740  0.629549  0.054322  1.0
  O  O27  1  0.676018  0.479051  0.207802  1.0
  O  O28  1  0.488758  0.784912  0.205229  1.0
  O  O29  1  0.032724  0.747854  0.316156  1.0
  O  O30  1  0.124050  0.147420  0.433497  1.0
  O  O31  1  0.941498  0.361371  0.368312  1.0
  O  O32  1  0.801200  0.992408  0.271949  1.0
  O  O33  1  0.434298  0.170239  0.494714  1.0
  O  O34  1  0.294767  0.911504  0.410088  1.0
  O  O35  1  0.200588  0.398939  0.508624  1.0
  O  O36  1  0.379233  0.630381  0.475200  1.0
  O  O37  1  0.620767  0.369619  0.524800  1.0
  O  O38  1  0.799412  0.601061  0.491376  1.0
  O  O39  1  0.705233  0.088497  0.589912  1.0
  O  O40  1  0.565702  0.829761  0.505286  1.0
  O  O41  1  0.198800  0.007592  0.728051  1.0
  O  O42  1  0.058502  0.638629  0.631688  1.0
  O  O43  1  0.875950  0.852580  0.566503  1.0
  O  O44  1  0.967276  0.252146  0.683844  1.0
  O  O45  1  0.511242  0.215089  0.794771  1.0
  O  O46  1  0.323982  0.520949  0.792198  1.0
  O  O47  1  0.095260  0.370451  0.945678  1.0
  O  O48  1  0.782027  0.429950  0.895938  1.0
  O  O49  1  0.416235  0.858547  0.873360  1.0
  O  O50  1  0.633187  0.653981  0.932603  1.0
  O  O51  1  0.112690  0.858616  0.003627  1.0
  O  O52  1  0.715191  0.932321  0.976392  1.0
