# generated using pymatgen
data_CaO2
_symmetry_space_group_name_H-M   'P 1'
_cell_length_a   3.29603021
_cell_length_b   4.20210836
_cell_length_c   4.20210836
_cell_angle_alpha   46.18138309
_cell_angle_beta   66.90930846
_cell_angle_gamma   66.90930846
_symmetry_Int_Tables_number   1
_chemical_formula_structural   CaO2
_chemical_formula_sum   'Ca1 O2'
_cell_volume   37.98578770
_cell_formula_units_Z   1
loop_
 _symmetry_equiv_pos_site_id
 _symmetry_equiv_pos_as_xyz
  1  'x, y, z'
loop_
 _atom_site_type_symbol
 _atom_site_label
 _atom_site_symmetry_multiplicity
 _atom_site_fract_x
 _atom_site_fract_y
 _atom_site_fract_z
 _atom_site_occupancy
  Ca  Ca1  1  0.500000  0.500000  0.500000  1.0
  O  O2  1  0.108637  0.891363  0.891363  1.0
  O  O3  1  0.891363  0.108637  0.108637  1.0
