# generated using pymatgen
data_V3Pt
_symmetry_space_group_name_H-M   'P 1'
_cell_length_a   3.83480217
_cell_length_b   3.83481445
_cell_length_c   3.83487573
_cell_angle_alpha   90.00001404
_cell_angle_beta   89.99997729
_cell_angle_gamma   90.00008501
_symmetry_Int_Tables_number   1
_chemical_formula_structural   V3Pt
_chemical_formula_sum   'V3 Pt1'
_cell_volume   56.39474208
_cell_formula_units_Z   1
loop_
 _symmetry_equiv_pos_site_id
 _symmetry_equiv_pos_as_xyz
  1  'x, y, z'
loop_
 _atom_site_type_symbol
 _atom_site_label
 _atom_site_symmetry_multiplicity
 _atom_site_fract_x
 _atom_site_fract_y
 _atom_site_fract_z
 _atom_site_occupancy
  V  V1  1  0.499999  0.500001  0.000001  1.0
  V  V2  1  0.500001  0.999999  0.500000  1.0
  V  V3  1  0.000000  0.499999  0.499999  1.0
  Pt  Pt4  1  0.000000  0.000000  0.000000  1.0
