# generated using pymatgen
data_Li2FeO2
_symmetry_space_group_name_H-M   'P 1'
_cell_length_a   3.22547073
_cell_length_b   3.15645602
_cell_length_c   5.28778925
_cell_angle_alpha   89.69735868
_cell_angle_beta   90.00000040
_cell_angle_gamma   120.72594006
_symmetry_Int_Tables_number   1
_chemical_formula_structural   Li2FeO2
_chemical_formula_sum   'Li2 Fe1 O2'
_cell_volume   46.27706673
_cell_formula_units_Z   1
loop_
 _symmetry_equiv_pos_site_id
 _symmetry_equiv_pos_as_xyz
  1  'x, y, z'
loop_
 _atom_site_type_symbol
 _atom_site_label
 _atom_site_symmetry_multiplicity
 _atom_site_fract_x
 _atom_site_fract_y
 _atom_site_fract_z
 _atom_site_occupancy
  Li  Li1  1  0.329909  0.659885  0.635203  1.0
  Li  Li2  1  0.670025  0.340115  0.364797  1.0
  Fe  Fe3  1  0.999948  0.000000  0.000000  1.0
  O  O4  1  0.332929  0.665940  0.243357  1.0
  O  O5  1  0.666989  0.334060  0.756643  1.0
