# generated using pymatgen
data_LuRhO3
_symmetry_space_group_name_H-M   'P 1'
_cell_length_a   3.92400462
_cell_length_b   3.92403504
_cell_length_c   3.92406253
_cell_angle_alpha   90.00023303
_cell_angle_beta   90.00054448
_cell_angle_gamma   90.00132945
_symmetry_Int_Tables_number   1
_chemical_formula_structural   LuRhO3
_chemical_formula_sum   'Lu1 Rh1 O3'
_cell_volume   60.42244651
_cell_formula_units_Z   1
loop_
 _symmetry_equiv_pos_site_id
 _symmetry_equiv_pos_as_xyz
  1  'x, y, z'
loop_
 _atom_site_type_symbol
 _atom_site_label
 _atom_site_symmetry_multiplicity
 _atom_site_fract_x
 _atom_site_fract_y
 _atom_site_fract_z
 _atom_site_occupancy
  Lu  Lu1  1  0.000001  0.000000  0.999997  1.0
  Rh  Rh2  1  0.499997  0.499996  0.499997  1.0
  O  O3  1  0.499998  0.500001  0.000000  1.0
  O  O4  1  0.500004  0.000001  0.500006  1.0
  O  O5  1  0.000000  0.500003  0.500000  1.0
