# generated using pymatgen
data_GeBO3
_symmetry_space_group_name_H-M   'P 1'
_cell_length_a   3.40732923
_cell_length_b   3.40733522
_cell_length_c   3.40735985
_cell_angle_alpha   89.99998436
_cell_angle_beta   90.00007786
_cell_angle_gamma   90.00001429
_symmetry_Int_Tables_number   1
_chemical_formula_structural   GeBO3
_chemical_formula_sum   'Ge1 B1 O3'
_cell_volume   39.55915105
_cell_formula_units_Z   1
loop_
 _symmetry_equiv_pos_site_id
 _symmetry_equiv_pos_as_xyz
  1  'x, y, z'
loop_
 _atom_site_type_symbol
 _atom_site_label
 _atom_site_symmetry_multiplicity
 _atom_site_fract_x
 _atom_site_fract_y
 _atom_site_fract_z
 _atom_site_occupancy
  Ge  Ge1  1  0.000000  0.999999  0.999999  1.0
  B  B2  1  0.500004  0.500003  0.500004  1.0
  O  O3  1  0.500002  0.500004  0.000001  1.0
  O  O4  1  0.500003  0.000001  0.500003  1.0
  O  O5  1  0.000000  0.500002  0.500001  1.0
