# generated using pymatgen
data_YZr
_symmetry_space_group_name_H-M   'P 1'
_cell_length_a   3.42357515
_cell_length_b   3.42359219
_cell_length_c   5.40258738
_cell_angle_alpha   89.99995321
_cell_angle_beta   90.00004741
_cell_angle_gamma   119.99868458
_symmetry_Int_Tables_number   1
_chemical_formula_structural   YZr
_chemical_formula_sum   'Y1 Zr1'
_cell_volume   54.84033263
_cell_formula_units_Z   1
loop_
 _symmetry_equiv_pos_site_id
 _symmetry_equiv_pos_as_xyz
  1  'x, y, z'
loop_
 _atom_site_type_symbol
 _atom_site_label
 _atom_site_symmetry_multiplicity
 _atom_site_fract_x
 _atom_site_fract_y
 _atom_site_fract_z
 _atom_site_occupancy
  Y  Y1  1  0.666667  0.333334  0.750001  1.0
  Zr  Zr2  1  0.333334  0.666668  0.249999  1.0
