# generated using pymatgen
data_SrHoO3
_symmetry_space_group_name_H-M   'P 1'
_cell_length_a   4.35540734
_cell_length_b   4.35531628
_cell_length_c   4.35542489
_cell_angle_alpha   89.99995567
_cell_angle_beta   90.00005749
_cell_angle_gamma   90.00005788
_symmetry_Int_Tables_number   1
_chemical_formula_structural   SrHoO3
_chemical_formula_sum   'Sr1 Ho1 O3'
_cell_volume   82.61882344
_cell_formula_units_Z   1
loop_
 _symmetry_equiv_pos_site_id
 _symmetry_equiv_pos_as_xyz
  1  'x, y, z'
loop_
 _atom_site_type_symbol
 _atom_site_label
 _atom_site_symmetry_multiplicity
 _atom_site_fract_x
 _atom_site_fract_y
 _atom_site_fract_z
 _atom_site_occupancy
  Sr  Sr1  1  0.000000  0.000001  0.000000  1.0
  Ho  Ho2  1  0.500002  0.500000  0.499999  1.0
  O  O3  1  0.500000  0.500001  0.000001  1.0
  O  O4  1  0.500001  0.000001  0.500001  1.0
  O  O5  1  0.000000  0.500000  0.500002  1.0
