# generated using pymatgen
data_SrInO3
_symmetry_space_group_name_H-M   'P 1'
_cell_length_a   4.21420924
_cell_length_b   4.21512031
_cell_length_c   4.21395092
_cell_angle_alpha   90.00008470
_cell_angle_beta   89.99997865
_cell_angle_gamma   89.99986392
_symmetry_Int_Tables_number   1
_chemical_formula_structural   SrInO3
_chemical_formula_sum   'Sr1 In1 O3'
_cell_volume   74.85409138
_cell_formula_units_Z   1
loop_
 _symmetry_equiv_pos_site_id
 _symmetry_equiv_pos_as_xyz
  1  'x, y, z'
loop_
 _atom_site_type_symbol
 _atom_site_label
 _atom_site_symmetry_multiplicity
 _atom_site_fract_x
 _atom_site_fract_y
 _atom_site_fract_z
 _atom_site_occupancy
  Sr  Sr1  1  0.000000  0.999999  0.999997  1.0
  In  In2  1  0.499999  0.500000  0.500001  1.0
  O  O3  1  0.499998  0.499998  0.000000  1.0
  O  O4  1  0.499998  0.999999  0.499998  1.0
  O  O5  1  0.999998  0.499997  0.499998  1.0
