# generated using pymatgen
data_WN
_symmetry_space_group_name_H-M   'P 1'
_cell_length_a   2.92357292
_cell_length_b   2.92357292
_cell_length_c   6.45206421
_cell_angle_alpha   90.00000000
_cell_angle_beta   90.00000000
_cell_angle_gamma   119.99998019
_symmetry_Int_Tables_number   1
_chemical_formula_structural   WN
_chemical_formula_sum   'W2 N2'
_cell_volume   47.75922384
_cell_formula_units_Z   2
loop_
 _symmetry_equiv_pos_site_id
 _symmetry_equiv_pos_as_xyz
  1  'x, y, z'
loop_
 _atom_site_type_symbol
 _atom_site_label
 _atom_site_symmetry_multiplicity
 _atom_site_fract_x
 _atom_site_fract_y
 _atom_site_fract_z
 _atom_site_occupancy
  W  W1  1  0.000000  0.000000  0.342735  1.0
  W  W2  1  0.333336  0.666668  0.842735  1.0
  N  N3  1  0.000000  0.000000  0.032264  1.0
  N  N4  1  0.333336  0.666668  0.532265  1.0
