# generated using pymatgen
data_Na3Rh
_symmetry_space_group_name_H-M   'P 1'
_cell_length_a   6.35847565
_cell_length_b   6.35847552
_cell_length_c   5.21392901
_cell_angle_alpha   90.00000000
_cell_angle_beta   90.00000000
_cell_angle_gamma   120.00000631
_symmetry_Int_Tables_number   1
_chemical_formula_structural   Na3Rh
_chemical_formula_sum   'Na6 Rh2'
_cell_volume   182.55836348
_cell_formula_units_Z   2
loop_
 _symmetry_equiv_pos_site_id
 _symmetry_equiv_pos_as_xyz
  1  'x, y, z'
loop_
 _atom_site_type_symbol
 _atom_site_label
 _atom_site_symmetry_multiplicity
 _atom_site_fract_x
 _atom_site_fract_y
 _atom_site_fract_z
 _atom_site_occupancy
  Na  Na1  1  0.177468  0.354937  0.250000  1.0
  Na  Na2  1  0.645062  0.822530  0.250000  1.0
  Na  Na3  1  0.177469  0.822530  0.250000  1.0
  Na  Na4  1  0.822531  0.645063  0.749999  1.0
  Na  Na5  1  0.354938  0.177469  0.749999  1.0
  Na  Na6  1  0.822532  0.177469  0.749999  1.0
  Rh  Rh7  1  0.333334  0.666668  0.749999  1.0
  Rh  Rh8  1  0.666665  0.333332  0.250000  1.0
