# generated using pymatgen
data_NaCu
_symmetry_space_group_name_H-M   'P 1'
_cell_length_a   2.83660601
_cell_length_b   2.83658251
_cell_length_c   4.96037597
_cell_angle_alpha   90.00000000
_cell_angle_beta   90.00000000
_cell_angle_gamma   120.00028564
_symmetry_Int_Tables_number   1
_chemical_formula_structural   NaCu
_chemical_formula_sum   'Na1 Cu1'
_cell_volume   34.56514763
_cell_formula_units_Z   1
loop_
 _symmetry_equiv_pos_site_id
 _symmetry_equiv_pos_as_xyz
  1  'x, y, z'
loop_
 _atom_site_type_symbol
 _atom_site_label
 _atom_site_symmetry_multiplicity
 _atom_site_fract_x
 _atom_site_fract_y
 _atom_site_fract_z
 _atom_site_occupancy
  Na  Na1  1  0.333332  0.666664  0.250000  1.0
  Cu  Cu2  1  0.666668  0.333334  0.750000  1.0
