# generated using pymatgen
data_Pt3Rh
_symmetry_space_group_name_H-M   'P 1'
_cell_length_a   3.94692914
_cell_length_b   3.94689373
_cell_length_c   3.94689787
_cell_angle_alpha   90.00056499
_cell_angle_beta   89.99970633
_cell_angle_gamma   90.00043303
_symmetry_Int_Tables_number   1
_chemical_formula_structural   Pt3Rh
_chemical_formula_sum   'Pt3 Rh1'
_cell_volume   61.48520868
_cell_formula_units_Z   1
loop_
 _symmetry_equiv_pos_site_id
 _symmetry_equiv_pos_as_xyz
  1  'x, y, z'
loop_
 _atom_site_type_symbol
 _atom_site_label
 _atom_site_symmetry_multiplicity
 _atom_site_fract_x
 _atom_site_fract_y
 _atom_site_fract_z
 _atom_site_occupancy
  Pt  Pt1  1  0.999998  0.500000  0.500001  1.0
  Pt  Pt2  1  0.499999  0.000000  0.499999  1.0
  Pt  Pt3  1  0.499999  0.499998  0.000003  1.0
  Rh  Rh4  1  0.000002  0.000000  0.999996  1.0
