# generated using pymatgen
data_LiLa3
_symmetry_space_group_name_H-M   'P 1'
_cell_length_a   5.11613026
_cell_length_b   5.11598558
_cell_length_c   5.11608970
_cell_angle_alpha   90.00040150
_cell_angle_beta   90.00057944
_cell_angle_gamma   89.99904269
_symmetry_Int_Tables_number   1
_chemical_formula_structural   LiLa3
_chemical_formula_sum   'Li1 La3'
_cell_volume   133.90878060
_cell_formula_units_Z   1
loop_
 _symmetry_equiv_pos_site_id
 _symmetry_equiv_pos_as_xyz
  1  'x, y, z'
loop_
 _atom_site_type_symbol
 _atom_site_label
 _atom_site_symmetry_multiplicity
 _atom_site_fract_x
 _atom_site_fract_y
 _atom_site_fract_z
 _atom_site_occupancy
  Li  Li1  1  0.999996  0.000002  0.999997  1.0
  La  La2  1  0.000011  0.500020  0.499999  1.0
  La  La3  1  0.499991  0.999969  0.500001  1.0
  La  La4  1  0.500002  0.500009  0.000002  1.0
