# generated using pymatgen
data_TiO
_symmetry_space_group_name_H-M   'P 1'
_cell_length_a   2.82646579
_cell_length_b   2.82644129
_cell_length_c   2.83785211
_cell_angle_alpha   89.99998608
_cell_angle_beta   90.00001416
_cell_angle_gamma   120.00057719
_symmetry_Int_Tables_number   1
_chemical_formula_structural   TiO
_chemical_formula_sum   'Ti1 O1'
_cell_volume   19.63367362
_cell_formula_units_Z   1
loop_
 _symmetry_equiv_pos_site_id
 _symmetry_equiv_pos_as_xyz
  1  'x, y, z'
loop_
 _atom_site_type_symbol
 _atom_site_label
 _atom_site_symmetry_multiplicity
 _atom_site_fract_x
 _atom_site_fract_y
 _atom_site_fract_z
 _atom_site_occupancy
  Ti  Ti1  1  0.666684  0.333316  0.000000  1.0
  O  O2  1  0.000016  0.999984  0.500000  1.0
