# generated using pymatgen
data_SmBr
_symmetry_space_group_name_H-M   'P 1'
_cell_length_a   3.68104219
_cell_length_b   3.68104750
_cell_length_c   4.58181043
_cell_angle_alpha   90.00000000
_cell_angle_beta   90.00000000
_cell_angle_gamma   119.99989972
_symmetry_Int_Tables_number   1
_chemical_formula_structural   SmBr
_chemical_formula_sum   'Sm1 Br1'
_cell_volume   53.76633130
_cell_formula_units_Z   1
loop_
 _symmetry_equiv_pos_site_id
 _symmetry_equiv_pos_as_xyz
  1  'x, y, z'
loop_
 _atom_site_type_symbol
 _atom_site_label
 _atom_site_symmetry_multiplicity
 _atom_site_fract_x
 _atom_site_fract_y
 _atom_site_fract_z
 _atom_site_occupancy
  Sm  Sm1  1  0.333333  0.666666  0.250000  1.0
  Br  Br2  1  0.666668  0.333334  0.750001  1.0
