# generated using pymatgen
data_CuAgF3
_symmetry_space_group_name_H-M   'P 1'
_cell_length_a   4.00569783
_cell_length_b   4.01025042
_cell_length_c   4.00933712
_cell_angle_alpha   89.86493264
_cell_angle_beta   89.69577735
_cell_angle_gamma   89.96574330
_symmetry_Int_Tables_number   1
_chemical_formula_structural   CuAgF3
_chemical_formula_sum   'Cu1 Ag1 F3'
_cell_volume   64.40429786
_cell_formula_units_Z   1
loop_
 _symmetry_equiv_pos_site_id
 _symmetry_equiv_pos_as_xyz
  1  'x, y, z'
loop_
 _atom_site_type_symbol
 _atom_site_label
 _atom_site_symmetry_multiplicity
 _atom_site_fract_x
 _atom_site_fract_y
 _atom_site_fract_z
 _atom_site_occupancy
  Cu  Cu1  1  0.486741  0.500041  0.497973  1.0
  Ag  Ag2  1  0.995310  0.998987  0.996767  1.0
  F  F3  1  0.484974  0.000212  0.495545  1.0
  F  F4  1  0.986804  0.502182  0.501304  1.0
  F  F5  1  0.486174  0.498576  0.998418  1.0
