# generated using pymatgen
data_CrN2
_symmetry_space_group_name_H-M   'P 1'
_cell_length_a   4.75922623
_cell_length_b   4.75922623
_cell_length_c   4.75922623
_cell_angle_alpha   90.00000000
_cell_angle_beta   90.00000000
_cell_angle_gamma   90.00000000
_symmetry_Int_Tables_number   1
_chemical_formula_structural   CrN2
_chemical_formula_sum   'Cr4 N8'
_cell_volume   107.79758924
_cell_formula_units_Z   4
loop_
 _symmetry_equiv_pos_site_id
 _symmetry_equiv_pos_as_xyz
  1  'x, y, z'
loop_
 _atom_site_type_symbol
 _atom_site_label
 _atom_site_symmetry_multiplicity
 _atom_site_fract_x
 _atom_site_fract_y
 _atom_site_fract_z
 _atom_site_occupancy
  Cr  Cr1  1  0.500000  0.500000  0.000000  1.0
  Cr  Cr2  1  0.500000  0.000000  0.500000  1.0
  Cr  Cr3  1  0.000000  0.500000  0.500000  1.0
  Cr  Cr4  1  0.000000  0.000000  0.000000  1.0
  N  N5  1  0.082445  0.917555  0.417555  1.0
  N  N6  1  0.917555  0.417555  0.082445  1.0
  N  N7  1  0.417555  0.082445  0.917555  1.0
  N  N8  1  0.582445  0.582445  0.582445  1.0
  N  N9  1  0.917555  0.082445  0.582445  1.0
  N  N10  1  0.082445  0.582445  0.917555  1.0
  N  N11  1  0.582445  0.917555  0.082445  1.0
  N  N12  1  0.417555  0.417555  0.417555  1.0
