# generated using pymatgen
data_MnFe2O3
_symmetry_space_group_name_H-M   'P 1'
_cell_length_a   4.47107449
_cell_length_b   4.47095541
_cell_length_c   6.96624170
_cell_angle_alpha   90.00000000
_cell_angle_beta   71.28203223
_cell_angle_gamma   90.00000000
_symmetry_Int_Tables_number   1
_chemical_formula_structural   MnFe2O3
_chemical_formula_sum   'Mn2 Fe4 O6'
_cell_volume   131.88975505
_cell_formula_units_Z   2
loop_
 _symmetry_equiv_pos_site_id
 _symmetry_equiv_pos_as_xyz
  1  'x, y, z'
loop_
 _atom_site_type_symbol
 _atom_site_label
 _atom_site_symmetry_multiplicity
 _atom_site_fract_x
 _atom_site_fract_y
 _atom_site_fract_z
 _atom_site_occupancy
  Mn  Mn1  1  0.001284  0.000000  0.997431  1.0
  Mn  Mn2  1  0.332049  0.000000  0.335902  1.0
  Fe  Fe3  1  0.497902  0.500000  0.004195  1.0
  Fe  Fe4  1  0.835431  0.500000  0.329138  1.0
  Fe  Fe5  1  0.666667  0.000000  0.666667  1.0
  Fe  Fe6  1  0.166667  0.500000  0.666667  1.0
  O  O7  1  0.997614  0.500000  0.004773  1.0
  O  O8  1  0.502413  0.000000  0.995175  1.0
  O  O9  1  0.335720  0.500000  0.328561  1.0
  O  O10  1  0.830921  0.000000  0.338159  1.0
  O  O11  1  0.166667  0.000000  0.666667  1.0
  O  O12  1  0.666667  0.500000  0.666667  1.0
