# generated using pymatgen
data_BMo
_symmetry_space_group_name_H-M   'P 1'
_cell_length_a   3.13188067
_cell_length_b   3.13188067
_cell_length_c   8.81118694
_cell_angle_alpha   100.23709126
_cell_angle_beta   100.23709124
_cell_angle_gamma   90.00000006
_symmetry_Int_Tables_number   1
_chemical_formula_structural   BMo
_chemical_formula_sum   'B4 Mo4'
_cell_volume   83.65178243
_cell_formula_units_Z   4
loop_
 _symmetry_equiv_pos_site_id
 _symmetry_equiv_pos_as_xyz
  1  'x, y, z'
loop_
 _atom_site_type_symbol
 _atom_site_label
 _atom_site_symmetry_multiplicity
 _atom_site_fract_x
 _atom_site_fract_y
 _atom_site_fract_z
 _atom_site_occupancy
  B  B1  1  0.469755  0.719755  0.439509  1.0
  B  B2  1  0.219755  0.969755  0.939509  1.0
  B  B3  1  0.530245  0.280245  0.560491  1.0
  B  B4  1  0.780245  0.030245  0.060491  1.0
  Mo  Mo5  1  0.322018  0.572018  0.144037  1.0
  Mo  Mo6  1  0.072018  0.822018  0.644037  1.0
  Mo  Mo7  1  0.677982  0.427982  0.855963  1.0
  Mo  Mo8  1  0.927982  0.177982  0.355963  1.0
