# generated using pymatgen
data_BaHg2
_symmetry_space_group_name_H-M   'P 1'
_cell_length_a   5.21977112
_cell_length_b   6.80754809
_cell_length_c   6.80754699
_cell_angle_alpha   79.35055221
_cell_angle_beta   67.45671496
_cell_angle_gamma   67.45671592
_symmetry_Int_Tables_number   1
_chemical_formula_structural   BaHg2
_chemical_formula_sum   'Ba2 Hg4'
_cell_volume   206.14091025
_cell_formula_units_Z   2
loop_
 _symmetry_equiv_pos_site_id
 _symmetry_equiv_pos_as_xyz
  1  'x, y, z'
loop_
 _atom_site_type_symbol
 _atom_site_label
 _atom_site_symmetry_multiplicity
 _atom_site_fract_x
 _atom_site_fract_y
 _atom_site_fract_z
 _atom_site_occupancy
  Ba  Ba1  1  0.498987  0.251013  0.751013  1.0
  Ba  Ba2  1  0.501013  0.748987  0.248987  1.0
  Hg  Hg3  1  0.833846  0.164631  0.167676  1.0
  Hg  Hg4  1  0.166154  0.835369  0.832324  1.0
  Hg  Hg5  1  0.166154  0.332324  0.335369  1.0
  Hg  Hg6  1  0.833846  0.667676  0.664631  1.0
