# generated using pymatgen
data_Ta2Be
_symmetry_space_group_name_H-M   'P 1'
_cell_length_a   4.90599111
_cell_length_b   4.92578149
_cell_length_c   4.92578149
_cell_angle_alpha   75.64109118
_cell_angle_beta   60.13281627
_cell_angle_gamma   60.13281622
_symmetry_Int_Tables_number   1
_chemical_formula_structural   Ta2Be
_chemical_formula_sum   'Ta4 Be2'
_cell_volume   89.51538165
_cell_formula_units_Z   2
loop_
 _symmetry_equiv_pos_site_id
 _symmetry_equiv_pos_as_xyz
  1  'x, y, z'
loop_
 _atom_site_type_symbol
 _atom_site_label
 _atom_site_symmetry_multiplicity
 _atom_site_fract_x
 _atom_site_fract_y
 _atom_site_fract_z
 _atom_site_occupancy
  Ta  Ta1  1  0.160905  0.500000  0.178190  1.0
  Ta  Ta2  1  0.339095  0.821810  0.500000  1.0
  Ta  Ta3  1  0.660905  0.178190  0.500000  1.0
  Ta  Ta4  1  0.839095  0.500000  0.821810  1.0
  Be  Be5  1  0.250000  0.000000  0.000000  1.0
  Be  Be6  1  0.750000  0.000000  0.000000  1.0
