# generated using pymatgen
data_TiS2
_symmetry_space_group_name_H-M   'P 1'
_cell_length_a   6.94298812
_cell_length_b   6.94298812
_cell_length_c   6.94298812
_cell_angle_alpha   59.99999999
_cell_angle_beta   60.00000000
_cell_angle_gamma   59.99999999
_symmetry_Int_Tables_number   1
_chemical_formula_structural   TiS2
_chemical_formula_sum   'Ti4 S8'
_cell_volume   236.65967760
_cell_formula_units_Z   4
loop_
 _symmetry_equiv_pos_site_id
 _symmetry_equiv_pos_as_xyz
  1  'x, y, z'
loop_
 _atom_site_type_symbol
 _atom_site_label
 _atom_site_symmetry_multiplicity
 _atom_site_fract_x
 _atom_site_fract_y
 _atom_site_fract_z
 _atom_site_occupancy
  Ti  Ti1  1  0.500000  0.000000  0.500000  1.0
  Ti  Ti2  1  0.000000  0.500000  0.500000  1.0
  Ti  Ti3  1  0.500000  0.500000  0.000000  1.0
  Ti  Ti4  1  0.500000  0.500000  0.500000  1.0
  S  S5  1  0.747798  0.747798  0.747798  1.0
  S  S6  1  0.252202  0.252202  0.743393  1.0
  S  S7  1  0.252202  0.743393  0.252202  1.0
  S  S8  1  0.743393  0.252202  0.252202  1.0
  S  S9  1  0.252202  0.252202  0.252202  1.0
  S  S10  1  0.747798  0.747798  0.256607  1.0
  S  S11  1  0.256607  0.747798  0.747798  1.0
  S  S12  1  0.747798  0.256607  0.747798  1.0
