# generated using pymatgen
data_RbTiBr3
_symmetry_space_group_name_H-M   'P 1'
_cell_length_a   7.84374685
_cell_length_b   7.84374664
_cell_length_c   5.90817558
_cell_angle_alpha   90.00000000
_cell_angle_beta   90.00000000
_cell_angle_gamma   120.00000092
_symmetry_Int_Tables_number   1
_chemical_formula_structural   RbTiBr3
_chemical_formula_sum   'Rb2 Ti2 Br6'
_cell_volume   314.79740729
_cell_formula_units_Z   2
loop_
 _symmetry_equiv_pos_site_id
 _symmetry_equiv_pos_as_xyz
  1  'x, y, z'
loop_
 _atom_site_type_symbol
 _atom_site_label
 _atom_site_symmetry_multiplicity
 _atom_site_fract_x
 _atom_site_fract_y
 _atom_site_fract_z
 _atom_site_occupancy
  Rb  Rb1  1  0.666667  0.333333  0.250000  1.0
  Rb  Rb2  1  0.333333  0.666667  0.750000  1.0
  Ti  Ti3  1  0.000000  0.000000  0.000000  1.0
  Ti  Ti4  1  0.000000  0.000000  0.500000  1.0
  Br  Br5  1  0.671321  0.835660  0.250000  1.0
  Br  Br6  1  0.835660  0.164340  0.750000  1.0
  Br  Br7  1  0.164340  0.835660  0.250000  1.0
  Br  Br8  1  0.328679  0.164340  0.750000  1.0
  Br  Br9  1  0.164340  0.328679  0.250000  1.0
  Br  Br10  1  0.835660  0.671321  0.750000  1.0
