# generated using pymatgen
data_IrO2
_symmetry_space_group_name_H-M   'P 1'
_cell_length_a   3.92524752
_cell_length_b   3.92524742
_cell_length_c   5.62305425
_cell_angle_alpha   110.42809597
_cell_angle_beta   110.42809136
_cell_angle_gamma   89.99999473
_symmetry_Int_Tables_number   1
_chemical_formula_structural   IrO2
_chemical_formula_sum   'Ir2 O4'
_cell_volume   75.34750803
_cell_formula_units_Z   2
loop_
 _symmetry_equiv_pos_site_id
 _symmetry_equiv_pos_as_xyz
  1  'x, y, z'
loop_
 _atom_site_type_symbol
 _atom_site_label
 _atom_site_symmetry_multiplicity
 _atom_site_fract_x
 _atom_site_fract_y
 _atom_site_fract_z
 _atom_site_occupancy
  Ir  Ir1  1  0.875000  0.625000  0.250000  1.0
  Ir  Ir2  1  0.125000  0.375000  0.750000  1.0
  O  O3  1  0.334604  0.584604  0.169207  1.0
  O  O4  1  0.084604  0.834604  0.669207  1.0
  O  O5  1  0.915396  0.165396  0.330793  1.0
  O  O6  1  0.665396  0.415396  0.830793  1.0
