# generated using pymatgen
data_Ta2N3O
_symmetry_space_group_name_H-M   'P 1'
_cell_length_a   5.43608239
_cell_length_b   5.43608222
_cell_length_c   2.79673080
_cell_angle_alpha   90.00000000
_cell_angle_beta   90.00000000
_cell_angle_gamma   120.01415465
_symmetry_Int_Tables_number   1
_chemical_formula_structural   Ta2N3O
_chemical_formula_sum   'Ta2 N3 O1'
_cell_volume   71.56346861
_cell_formula_units_Z   1
loop_
 _symmetry_equiv_pos_site_id
 _symmetry_equiv_pos_as_xyz
  1  'x, y, z'
loop_
 _atom_site_type_symbol
 _atom_site_label
 _atom_site_symmetry_multiplicity
 _atom_site_fract_x
 _atom_site_fract_y
 _atom_site_fract_z
 _atom_site_occupancy
  Ta  Ta1  1  0.666689  0.333366  0.500000  1.0
  Ta  Ta2  1  0.333366  0.666689  0.500000  1.0
  N  N3  1  0.500006  0.500006  0.000000  1.0
  N  N4  1  0.500016  0.000026  0.000000  1.0
  N  N5  1  0.000026  0.500016  0.000000  1.0
  O  O6  1  0.999997  0.999997  0.000000  1.0
