# generated using pymatgen
data_Fe2CoO4
_symmetry_space_group_name_H-M   'P 1'
_cell_length_a   6.03930038
_cell_length_b   6.03936239
_cell_length_c   18.06599462
_cell_angle_alpha   59.90433947
_cell_angle_beta   59.90432788
_cell_angle_gamma   59.99980541
_symmetry_Int_Tables_number   1
_chemical_formula_structural   Fe2CoO4
_chemical_formula_sum   'Fe12 Co6 O24'
_cell_volume   465.25865302
_cell_formula_units_Z   6
loop_
 _symmetry_equiv_pos_site_id
 _symmetry_equiv_pos_as_xyz
  1  'x, y, z'
loop_
 _atom_site_type_symbol
 _atom_site_label
 _atom_site_symmetry_multiplicity
 _atom_site_fract_x
 _atom_site_fract_y
 _atom_site_fract_z
 _atom_site_occupancy
  Fe  Fe1  1  0.126136  0.120645  0.043117  1.0
  Fe  Fe2  1  0.499777  0.001362  0.165962  1.0
  Fe  Fe3  1  0.123914  0.125987  0.376469  1.0
  Fe  Fe4  1  0.500408  0.499041  0.167272  1.0
  Fe  Fe5  1  0.998656  0.500233  0.500691  1.0
  Fe  Fe6  1  0.120553  0.123898  0.709845  1.0
  Fe  Fe7  1  0.500953  0.499614  0.499403  1.0
  Fe  Fe8  1  0.874012  0.876110  0.290193  1.0
  Fe  Fe9  1  0.498794  0.998551  0.834100  1.0
  Fe  Fe10  1  0.879348  0.873893  0.623552  1.0
  Fe  Fe11  1  0.001439  0.501185  0.832566  1.0
  Fe  Fe12  1  0.876102  0.879447  0.956817  1.0
  Co  Co13  1  0.496687  0.499919  0.000024  1.0
  Co  Co14  1  0.503325  0.496666  0.333337  1.0
  Co  Co15  1  0.500186  0.000145  0.499915  1.0
  Co  Co16  1  0.999841  0.499826  0.166765  1.0
  Co  Co17  1  0.500083  0.503302  0.666649  1.0
  Co  Co18  1  0.499924  0.500058  0.833328  1.0
  O  O19  1  0.259021  0.246116  0.086885  1.0
  O  O20  1  0.261818  0.730524  0.086545  1.0
  O  O21  1  0.265988  0.250693  0.244104  1.0
  O  O22  1  0.730110  0.251412  0.088931  1.0
  O  O23  1  0.270054  0.748136  0.244496  1.0
  O  O24  1  0.248307  0.261660  0.419889  1.0
  O  O25  1  0.734036  0.749029  0.089238  1.0
  O  O26  1  0.740909  0.265435  0.246473  1.0
  O  O27  1  0.251858  0.729962  0.422185  1.0
  O  O28  1  0.250982  0.265967  0.577421  1.0
  O  O29  1  0.738353  0.751719  0.246772  1.0
  O  O30  1  0.734563  0.259101  0.420177  1.0
  O  O31  1  0.269463  0.738184  0.580125  1.0
  O  O32  1  0.251875  0.252041  0.755400  1.0
  O  O33  1  0.748607  0.269907  0.577728  1.0
  O  O34  1  0.749291  0.734045  0.422567  1.0
  O  O35  1  0.245565  0.734691  0.753621  1.0
  O  O36  1  0.250573  0.250846  0.910808  1.0
  O  O37  1  0.753857  0.740960  0.579803  1.0
  O  O38  1  0.730410  0.248172  0.753235  1.0
  O  O39  1  0.265322  0.754382  0.913035  1.0
  O  O40  1  0.749134  0.749417  0.755856  1.0
  O  O41  1  0.751808  0.269591  0.913437  1.0
  O  O42  1  0.747955  0.748129  0.911267  1.0
