# generated using pymatgen
data_Ba2UCoO6
_symmetry_space_group_name_H-M   'P 1'
_cell_length_a   5.97377145
_cell_length_b   5.97377144
_cell_length_c   5.97377144
_cell_angle_alpha   60.00000003
_cell_angle_beta   60.00000003
_cell_angle_gamma   59.99999998
_symmetry_Int_Tables_number   1
_chemical_formula_structural   Ba2UCoO6
_chemical_formula_sum   'Ba2 U1 Co1 O6'
_cell_volume   150.74079788
_cell_formula_units_Z   1
loop_
 _symmetry_equiv_pos_site_id
 _symmetry_equiv_pos_as_xyz
  1  'x, y, z'
loop_
 _atom_site_type_symbol
 _atom_site_label
 _atom_site_symmetry_multiplicity
 _atom_site_fract_x
 _atom_site_fract_y
 _atom_site_fract_z
 _atom_site_occupancy
  Ba  Ba1  1  0.250000  0.250001  0.250000  1.0
  Ba  Ba2  1  0.750000  0.750000  0.749999  1.0
  U  U3  1  0.000000  0.000000  0.000000  1.0
  Co  Co4  1  0.499999  0.499999  0.500001  1.0
  O  O5  1  0.248370  0.751630  0.751630  1.0
  O  O6  1  0.248370  0.751630  0.248370  1.0
  O  O7  1  0.751631  0.248369  0.751630  1.0
  O  O8  1  0.248370  0.248369  0.751631  1.0
  O  O9  1  0.751631  0.248369  0.248370  1.0
  O  O10  1  0.751631  0.751630  0.248371  1.0
