# generated using pymatgen
data_P2O3
_symmetry_space_group_name_H-M   'P 1'
_cell_length_a   6.66116588
_cell_length_b   7.18438437
_cell_length_c   8.48709118
_cell_angle_alpha   90.00000000
_cell_angle_beta   90.00000000
_cell_angle_gamma   108.35236472
_symmetry_Int_Tables_number   1
_chemical_formula_structural   P2O3
_chemical_formula_sum   'P8 O12'
_cell_volume   385.50328990
_cell_formula_units_Z   4
loop_
 _symmetry_equiv_pos_site_id
 _symmetry_equiv_pos_as_xyz
  1  'x, y, z'
loop_
 _atom_site_type_symbol
 _atom_site_label
 _atom_site_symmetry_multiplicity
 _atom_site_fract_x
 _atom_site_fract_y
 _atom_site_fract_z
 _atom_site_occupancy
  P  P1  1  0.251474  0.134685  0.924862  1.0
  P  P2  1  0.748526  0.865315  0.424862  1.0
  P  P3  1  0.748526  0.865315  0.075138  1.0
  P  P4  1  0.251474  0.134685  0.575138  1.0
  P  P5  1  0.361481  0.640757  0.250000  1.0
  P  P6  1  0.638519  0.359243  0.750000  1.0
  P  P7  1  0.739643  0.504302  0.250000  1.0
  P  P8  1  0.260357  0.495698  0.750000  1.0
  O  O9  1  0.818767  0.970161  0.250000  1.0
  O  O10  1  0.181233  0.029839  0.750000  1.0
  O  O11  1  0.188744  0.339761  0.900763  1.0
  O  O12  1  0.811256  0.660239  0.400763  1.0
  O  O13  1  0.811256  0.660239  0.099237  1.0
  O  O14  1  0.188744  0.339761  0.599237  1.0
  O  O15  1  0.513463  0.222373  0.900702  1.0
  O  O16  1  0.486537  0.777627  0.400702  1.0
  O  O17  1  0.521204  0.532600  0.750000  1.0
  O  O18  1  0.478796  0.467400  0.250000  1.0
  O  O19  1  0.513463  0.222373  0.599298  1.0
  O  O20  1  0.486537  0.777627  0.099298  1.0
