# generated using pymatgen
data_DyMn2
_symmetry_space_group_name_H-M   'P 1'
_cell_length_a   5.10611915
_cell_length_b   5.10611915
_cell_length_c   5.10611916
_cell_angle_alpha   59.99999996
_cell_angle_beta   59.99999996
_cell_angle_gamma   60.00000001
_symmetry_Int_Tables_number   1
_chemical_formula_structural   DyMn2
_chemical_formula_sum   'Dy2 Mn4'
_cell_volume   94.13645444
_cell_formula_units_Z   2
loop_
 _symmetry_equiv_pos_site_id
 _symmetry_equiv_pos_as_xyz
  1  'x, y, z'
loop_
 _atom_site_type_symbol
 _atom_site_label
 _atom_site_symmetry_multiplicity
 _atom_site_fract_x
 _atom_site_fract_y
 _atom_site_fract_z
 _atom_site_occupancy
  Dy  Dy1  1  0.125000  0.125000  0.125000  1.0
  Dy  Dy2  1  0.875000  0.875000  0.875000  1.0
  Mn  Mn3  1  0.500000  0.000000  0.500000  1.0
  Mn  Mn4  1  0.000000  0.500000  0.500000  1.0
  Mn  Mn5  1  0.500000  0.500000  0.500000  1.0
  Mn  Mn6  1  0.500000  0.500000  0.000000  1.0
