# generated using pymatgen
data_Ca2SnS4
_symmetry_space_group_name_H-M   'P 1'
_cell_length_a   3.95962319
_cell_length_b   7.23671561
_cell_length_c   7.14332354
_cell_angle_alpha   61.56809539
_cell_angle_beta   90.00000000
_cell_angle_gamma   105.87733476
_symmetry_Int_Tables_number   1
_chemical_formula_structural   Ca2SnS4
_chemical_formula_sum   'Ca2 Sn1 S4'
_cell_volume   171.06833023
_cell_formula_units_Z   1
loop_
 _symmetry_equiv_pos_site_id
 _symmetry_equiv_pos_as_xyz
  1  'x, y, z'
loop_
 _atom_site_type_symbol
 _atom_site_label
 _atom_site_symmetry_multiplicity
 _atom_site_fract_x
 _atom_site_fract_y
 _atom_site_fract_z
 _atom_site_occupancy
  Ca  Ca1  1  0.289430  0.578860  0.692404  1.0
  Ca  Ca2  1  0.710570  0.421140  0.307596  1.0
  Sn  Sn3  1  0.000000  0.000000  0.000000  1.0
  S  S4  1  0.367356  0.734712  0.994633  1.0
  S  S5  1  0.632644  0.265288  0.005367  1.0
  S  S6  1  0.110537  0.221074  0.603842  1.0
  S  S7  1  0.889463  0.778926  0.396158  1.0
