# generated using pymatgen
data_Rb2CdCl4
_symmetry_space_group_name_H-M   'P 1'
_cell_length_a   5.31359086
_cell_length_b   5.31359086
_cell_length_c   9.01663699
_cell_angle_alpha   107.13683928
_cell_angle_beta   107.13683929
_cell_angle_gamma   90.00000000
_symmetry_Int_Tables_number   1
_chemical_formula_structural   Rb2CdCl4
_chemical_formula_sum   'Rb2 Cd1 Cl4'
_cell_volume   231.42202328
_cell_formula_units_Z   1
loop_
 _symmetry_equiv_pos_site_id
 _symmetry_equiv_pos_as_xyz
  1  'x, y, z'
loop_
 _atom_site_type_symbol
 _atom_site_label
 _atom_site_symmetry_multiplicity
 _atom_site_fract_x
 _atom_site_fract_y
 _atom_site_fract_z
 _atom_site_occupancy
  Rb  Rb1  1  0.359732  0.359732  0.719464  1.0
  Rb  Rb2  1  0.640268  0.640268  0.280536  1.0
  Cd  Cd3  1  0.000000  0.000000  0.000000  1.0
  Cl  Cl4  1  0.840251  0.840251  0.680502  1.0
  Cl  Cl5  1  0.159749  0.159749  0.319498  1.0
  Cl  Cl6  1  0.000000  0.500000  0.000000  1.0
  Cl  Cl7  1  0.500000  0.000000  0.000000  1.0
