# generated using pymatgen
data_C3N4
_symmetry_space_group_name_H-M   'P 1'
_cell_length_a   4.79594824
_cell_length_b   4.79594824
_cell_length_c   4.79594824
_cell_angle_alpha   59.99999999
_cell_angle_beta   59.99999999
_cell_angle_gamma   60.00000003
_symmetry_Int_Tables_number   1
_chemical_formula_structural   C3N4
_chemical_formula_sum   'C6 N8'
_cell_volume   78.00248960
_cell_formula_units_Z   2
loop_
 _symmetry_equiv_pos_site_id
 _symmetry_equiv_pos_as_xyz
  1  'x, y, z'
loop_
 _atom_site_type_symbol
 _atom_site_label
 _atom_site_symmetry_multiplicity
 _atom_site_fract_x
 _atom_site_fract_y
 _atom_site_fract_z
 _atom_site_occupancy
  C  C1  1  0.125000  0.125000  0.125000  1.0
  C  C2  1  0.875000  0.875000  0.875000  1.0
  C  C3  1  0.500000  0.500000  0.500000  1.0
  C  C4  1  0.500000  0.500000  0.000000  1.0
  C  C5  1  0.000000  0.500000  0.500000  1.0
  C  C6  1  0.500000  0.000000  0.500000  1.0
  N  N7  1  0.255858  0.255858  0.255858  1.0
  N  N8  1  0.744142  0.744142  0.267574  1.0
  N  N9  1  0.267574  0.744142  0.744142  1.0
  N  N10  1  0.744142  0.267574  0.744142  1.0
  N  N11  1  0.732426  0.255858  0.255858  1.0
  N  N12  1  0.255858  0.732426  0.255858  1.0
  N  N13  1  0.255858  0.255858  0.732426  1.0
  N  N14  1  0.744142  0.744142  0.744142  1.0
