# generated using pymatgen
data_Na
_symmetry_space_group_name_H-M   'P 1'
_cell_length_a   7.26401089
_cell_length_b   7.26401024
_cell_length_c   7.26401111
_cell_angle_alpha   109.47122308
_cell_angle_beta   109.47122127
_cell_angle_gamma   109.47122181
_symmetry_Int_Tables_number   1
_chemical_formula_structural   Na
_chemical_formula_sum   Na8
_cell_volume   295.05808575
_cell_formula_units_Z   8
loop_
 _symmetry_equiv_pos_site_id
 _symmetry_equiv_pos_as_xyz
  1  'x, y, z'
loop_
 _atom_site_type_symbol
 _atom_site_label
 _atom_site_symmetry_multiplicity
 _atom_site_fract_x
 _atom_site_fract_y
 _atom_site_fract_z
 _atom_site_occupancy
  Na  Na1  1  0.446984  0.500000  0.000000  1.0
  Na  Na2  1  0.000000  0.446984  0.500000  1.0
  Na  Na3  1  0.500000  0.000000  0.946984  1.0
  Na  Na4  1  0.000000  0.946984  0.500000  1.0
  Na  Na5  1  0.500000  0.000000  0.446984  1.0
  Na  Na6  1  0.946984  0.500000  0.000000  1.0
  Na  Na7  1  0.553016  0.553016  0.553016  1.0
  Na  Na8  1  0.053016  0.053016  0.053016  1.0
