# generated using pymatgen
data_GeTe
_symmetry_space_group_name_H-M   'P 1'
_cell_length_a   6.00857555
_cell_length_b   6.00857555
_cell_length_c   6.00857554
_cell_angle_alpha   89.99272526
_cell_angle_beta   89.99272527
_cell_angle_gamma   89.99272527
_symmetry_Int_Tables_number   1
_chemical_formula_structural   GeTe
_chemical_formula_sum   'Ge4 Te4'
_cell_volume   216.92747815
_cell_formula_units_Z   4
loop_
 _symmetry_equiv_pos_site_id
 _symmetry_equiv_pos_as_xyz
  1  'x, y, z'
loop_
 _atom_site_type_symbol
 _atom_site_label
 _atom_site_symmetry_multiplicity
 _atom_site_fract_x
 _atom_site_fract_y
 _atom_site_fract_z
 _atom_site_occupancy
  Ge  Ge1  1  0.000000  0.000000  0.000000  1.0
  Ge  Ge2  1  0.500000  0.500000  0.000000  1.0
  Ge  Ge3  1  0.000000  0.500000  0.500000  1.0
  Ge  Ge4  1  0.500000  0.000000  0.500000  1.0
  Te  Te5  1  0.500000  0.500000  0.500000  1.0
  Te  Te6  1  0.000000  0.000000  0.500000  1.0
  Te  Te7  1  0.500000  0.000000  0.000000  1.0
  Te  Te8  1  0.000000  0.500000  0.000000  1.0
