# generated using pymatgen
data_Cd2Hg
_symmetry_space_group_name_H-M   'P 1'
_cell_length_a   4.04356851
_cell_length_b   4.04356852
_cell_length_c   5.26633706
_cell_angle_alpha   112.57590934
_cell_angle_beta   112.57590931
_cell_angle_gamma   89.99999991
_symmetry_Int_Tables_number   1
_chemical_formula_structural   Cd2Hg
_chemical_formula_sum   'Cd2 Hg1'
_cell_volume   72.31091474
_cell_formula_units_Z   1
loop_
 _symmetry_equiv_pos_site_id
 _symmetry_equiv_pos_as_xyz
  1  'x, y, z'
loop_
 _atom_site_type_symbol
 _atom_site_label
 _atom_site_symmetry_multiplicity
 _atom_site_fract_x
 _atom_site_fract_y
 _atom_site_fract_z
 _atom_site_occupancy
  Cd  Cd1  1  0.333375  0.333375  0.666751  1.0
  Cd  Cd2  1  0.666625  0.666625  0.333249  1.0
  Hg  Hg3  1  0.000000  0.000000  0.000000  1.0
