# generated using pymatgen
data_ErB2Ir3
_symmetry_space_group_name_H-M   'P 1'
_cell_length_a   3.13609384
_cell_length_b   5.46285886
_cell_length_c   5.46409113
_cell_angle_alpha   60.00745981
_cell_angle_beta   89.99991592
_cell_angle_gamma   89.99983192
_symmetry_Int_Tables_number   1
_chemical_formula_structural   ErB2Ir3
_chemical_formula_sum   'Er1 B2 Ir3'
_cell_volume   81.07561209
_cell_formula_units_Z   1
loop_
 _symmetry_equiv_pos_site_id
 _symmetry_equiv_pos_as_xyz
  1  'x, y, z'
loop_
 _atom_site_type_symbol
 _atom_site_label
 _atom_site_symmetry_multiplicity
 _atom_site_fract_x
 _atom_site_fract_y
 _atom_site_fract_z
 _atom_site_occupancy
  Er  Er1  1  0.000000  0.000000  0.000000  1.0
  B  B2  1  0.000000  0.666667  0.666665  1.0
  B  B3  1  0.000000  0.333333  0.333335  1.0
  Ir  Ir4  1  0.500000  0.000000  0.500000  1.0
  Ir  Ir5  1  0.500000  0.500000  0.000000  1.0
  Ir  Ir6  1  0.500000  0.500000  0.500000  1.0
