# generated using pymatgen
data_CsSnO3
_symmetry_space_group_name_H-M   'P 1'
_cell_length_a   4.27312165
_cell_length_b   4.27625919
_cell_length_c   4.27269965
_cell_angle_alpha   90.03188222
_cell_angle_beta   90.02760743
_cell_angle_gamma   89.97191075
_symmetry_Int_Tables_number   1
_chemical_formula_structural   CsSnO3
_chemical_formula_sum   'Cs1 Sn1 O3'
_cell_volume   78.07490647
_cell_formula_units_Z   1
loop_
 _symmetry_equiv_pos_site_id
 _symmetry_equiv_pos_as_xyz
  1  'x, y, z'
loop_
 _atom_site_type_symbol
 _atom_site_label
 _atom_site_symmetry_multiplicity
 _atom_site_fract_x
 _atom_site_fract_y
 _atom_site_fract_z
 _atom_site_occupancy
  Cs  Cs1  1  0.999999  0.999999  0.000000  1.0
  Sn  Sn2  1  0.499999  0.499999  0.499999  1.0
  O  O3  1  0.499998  0.499998  0.999999  1.0
  O  O4  1  0.499999  0.000000  0.499998  1.0
  O  O5  1  0.999999  0.499998  0.499998  1.0
