# generated using pymatgen
data_MgCN2
_symmetry_space_group_name_H-M   'P 1'
_cell_length_a   4.49116343
_cell_length_b   4.49116344
_cell_length_c   4.43017460
_cell_angle_alpha   120.45645299
_cell_angle_beta   120.45645307
_cell_angle_gamma   89.99999999
_symmetry_Int_Tables_number   1
_chemical_formula_structural   MgCN2
_chemical_formula_sum   'Mg2 C2 N4'
_cell_volume   62.30438185
_cell_formula_units_Z   2
loop_
 _symmetry_equiv_pos_site_id
 _symmetry_equiv_pos_as_xyz
  1  'x, y, z'
loop_
 _atom_site_type_symbol
 _atom_site_label
 _atom_site_symmetry_multiplicity
 _atom_site_fract_x
 _atom_site_fract_y
 _atom_site_fract_z
 _atom_site_occupancy
  Mg  Mg1  1  0.250000  0.750000  0.500000  1.0
  Mg  Mg2  1  0.000000  0.000000  0.000000  1.0
  C  C3  1  0.500000  0.500000  0.000000  1.0
  C  C4  1  0.750000  0.250000  0.500000  1.0
  N  N5  1  0.772140  0.875000  0.250000  1.0
  N  N6  1  0.625000  0.227860  0.750000  1.0
  N  N7  1  0.477860  0.375000  0.250000  1.0
  N  N8  1  0.125000  0.522140  0.750000  1.0
