# generated using pymatgen
data_CoCN2
_symmetry_space_group_name_H-M   'P 1'
_cell_length_a   3.11078082
_cell_length_b   3.11078081
_cell_length_c   9.56012292
_cell_angle_alpha   90.00000000
_cell_angle_beta   90.00000000
_cell_angle_gamma   120.00000014
_symmetry_Int_Tables_number   1
_chemical_formula_structural   CoCN2
_chemical_formula_sum   'Co2 C2 N4'
_cell_volume   80.11852240
_cell_formula_units_Z   2
loop_
 _symmetry_equiv_pos_site_id
 _symmetry_equiv_pos_as_xyz
  1  'x, y, z'
loop_
 _atom_site_type_symbol
 _atom_site_label
 _atom_site_symmetry_multiplicity
 _atom_site_fract_x
 _atom_site_fract_y
 _atom_site_fract_z
 _atom_site_occupancy
  Co  Co1  1  0.000000  0.000000  0.500000  1.0
  Co  Co2  1  0.000000  0.000000  0.000000  1.0
  C  C3  1  0.333333  0.666667  0.750000  1.0
  C  C4  1  0.666667  0.333333  0.250000  1.0
  N  N5  1  0.666667  0.333333  0.379340  1.0
  N  N6  1  0.333333  0.666667  0.620660  1.0
  N  N7  1  0.666667  0.333333  0.120660  1.0
  N  N8  1  0.333333  0.666667  0.879340  1.0
