# generated using pymatgen
data_PmB3
_symmetry_space_group_name_H-M   'P 1'
_cell_length_a   5.58106355
_cell_length_b   5.58106353
_cell_length_c   3.44150030
_cell_angle_alpha   90.00000000
_cell_angle_beta   90.00000000
_cell_angle_gamma   120.00000017
_symmetry_Int_Tables_number   1
_chemical_formula_structural   PmB3
_chemical_formula_sum   'Pm2 B6'
_cell_volume   92.83513571
_cell_formula_units_Z   2
loop_
 _symmetry_equiv_pos_site_id
 _symmetry_equiv_pos_as_xyz
  1  'x, y, z'
loop_
 _atom_site_type_symbol
 _atom_site_label
 _atom_site_symmetry_multiplicity
 _atom_site_fract_x
 _atom_site_fract_y
 _atom_site_fract_z
 _atom_site_occupancy
  Pm  Pm1  1  0.666666  0.333332  0.250001  1.0
  Pm  Pm2  1  0.333333  0.666667  0.750001  1.0
  B  B3  1  0.892905  0.107092  0.750001  1.0
  B  B4  1  0.214186  0.107092  0.750001  1.0
  B  B5  1  0.892906  0.785813  0.750001  1.0
  B  B6  1  0.107094  0.892905  0.250001  1.0
  B  B7  1  0.785811  0.892905  0.250001  1.0
  B  B8  1  0.107094  0.214189  0.250001  1.0
