# generated using pymatgen
data_Fe3Pt
_symmetry_space_group_name_H-M   'P 1'
_cell_length_a   5.24932632
_cell_length_b   5.24932631
_cell_length_c   5.24932632
_cell_angle_alpha   93.60362720
_cell_angle_beta   117.94171637
_cell_angle_gamma   117.94171636
_symmetry_Int_Tables_number   1
_chemical_formula_structural   Fe3Pt
_chemical_formula_sum   'Fe6 Pt2'
_cell_volume   105.23807644
_cell_formula_units_Z   2
loop_
 _symmetry_equiv_pos_site_id
 _symmetry_equiv_pos_as_xyz
  1  'x, y, z'
loop_
 _atom_site_type_symbol
 _atom_site_label
 _atom_site_symmetry_multiplicity
 _atom_site_fract_x
 _atom_site_fract_y
 _atom_site_fract_z
 _atom_site_occupancy
  Fe  Fe1  1  0.500011  0.250006  0.250006  1.0
  Fe  Fe2  1  0.000000  0.250006  0.749994  1.0
  Fe  Fe3  1  0.000000  0.750008  0.750008  1.0
  Fe  Fe4  1  0.000000  0.249992  0.249992  1.0
  Fe  Fe5  1  0.499989  0.749994  0.749994  1.0
  Fe  Fe6  1  0.000000  0.749994  0.250006  1.0
  Pt  Pt7  1  0.500000  0.250000  0.750000  1.0
  Pt  Pt8  1  0.500000  0.750000  0.250000  1.0
