# generated using pymatgen
data_BaSi
_symmetry_space_group_name_H-M   'P 1'
_cell_length_a   4.15761665
_cell_length_b   5.06111981
_cell_length_c   6.56749506
_cell_angle_alpha   112.66334971
_cell_angle_beta   90.00000000
_cell_angle_gamma   90.00000000
_symmetry_Int_Tables_number   1
_chemical_formula_structural   BaSi
_chemical_formula_sum   'Ba2 Si2'
_cell_volume   127.52379429
_cell_formula_units_Z   2
loop_
 _symmetry_equiv_pos_site_id
 _symmetry_equiv_pos_as_xyz
  1  'x, y, z'
loop_
 _atom_site_type_symbol
 _atom_site_label
 _atom_site_symmetry_multiplicity
 _atom_site_fract_x
 _atom_site_fract_y
 _atom_site_fract_z
 _atom_site_occupancy
  Ba  Ba1  1  0.250000  0.860395  0.720790  1.0
  Ba  Ba2  1  0.750000  0.139605  0.279210  1.0
  Si  Si3  1  0.250000  0.557579  0.115159  1.0
  Si  Si4  1  0.750000  0.442421  0.884841  1.0
