# generated using pymatgen
data_Hf2Hg
_symmetry_space_group_name_H-M   'P 1'
_cell_length_a   3.37428936
_cell_length_b   3.37428936
_cell_length_c   6.26168827
_cell_angle_alpha   105.63090765
_cell_angle_beta   105.63090765
_cell_angle_gamma   90.00000000
_symmetry_Int_Tables_number   1
_chemical_formula_structural   Hf2Hg
_chemical_formula_sum   'Hf2 Hg1'
_cell_volume   65.91580840
_cell_formula_units_Z   1
loop_
 _symmetry_equiv_pos_site_id
 _symmetry_equiv_pos_as_xyz
  1  'x, y, z'
loop_
 _atom_site_type_symbol
 _atom_site_label
 _atom_site_symmetry_multiplicity
 _atom_site_fract_x
 _atom_site_fract_y
 _atom_site_fract_z
 _atom_site_occupancy
  Hf  Hf1  1  0.666018  0.666018  0.332037  1.0
  Hf  Hf2  1  0.333982  0.333982  0.667963  1.0
  Hg  Hg3  1  0.000000  0.000000  0.000000  1.0
