# generated using pymatgen
data_CrH
_symmetry_space_group_name_H-M   'P 1'
_cell_length_a   2.75801049
_cell_length_b   2.75800996
_cell_length_c   4.50109562
_cell_angle_alpha   90.00000000
_cell_angle_beta   90.00000000
_cell_angle_gamma   120.00000651
_symmetry_Int_Tables_number   1
_chemical_formula_structural   CrH
_chemical_formula_sum   'Cr2 H2'
_cell_volume   29.65108475
_cell_formula_units_Z   2
loop_
 _symmetry_equiv_pos_site_id
 _symmetry_equiv_pos_as_xyz
  1  'x, y, z'
loop_
 _atom_site_type_symbol
 _atom_site_label
 _atom_site_symmetry_multiplicity
 _atom_site_fract_x
 _atom_site_fract_y
 _atom_site_fract_z
 _atom_site_occupancy
  Cr  Cr1  1  0.666667  0.333333  0.500866  1.0
  Cr  Cr2  1  0.333333  0.666667  0.000866  1.0
  H  H3  1  0.666667  0.333333  0.874134  1.0
  H  H4  1  0.333333  0.666667  0.374134  1.0
