# generated using pymatgen
data_DyFeSi
_symmetry_space_group_name_H-M   'P 1'
_cell_length_a   4.04235379
_cell_length_b   4.04235379
_cell_length_c   6.47819421
_cell_angle_alpha   90.00000000
_cell_angle_beta   90.00000000
_cell_angle_gamma   90.00000000
_symmetry_Int_Tables_number   1
_chemical_formula_structural   DyFeSi
_chemical_formula_sum   'Dy2 Fe2 Si2'
_cell_volume   105.85773684
_cell_formula_units_Z   2
loop_
 _symmetry_equiv_pos_site_id
 _symmetry_equiv_pos_as_xyz
  1  'x, y, z'
loop_
 _atom_site_type_symbol
 _atom_site_label
 _atom_site_symmetry_multiplicity
 _atom_site_fract_x
 _atom_site_fract_y
 _atom_site_fract_z
 _atom_site_occupancy
  Dy  Dy1  1  0.250000  0.250000  0.684936  1.0
  Dy  Dy2  1  0.750000  0.750000  0.315064  1.0
  Fe  Fe3  1  0.750000  0.250000  0.000000  1.0
  Fe  Fe4  1  0.250000  0.750000  0.000000  1.0
  Si  Si5  1  0.750000  0.750000  0.821153  1.0
  Si  Si6  1  0.250000  0.250000  0.178847  1.0
