# generated using pymatgen
data_CuAs2
_symmetry_space_group_name_H-M   'P 1'
_cell_length_a   3.82072277
_cell_length_b   4.80597355
_cell_length_c   5.96060596
_cell_angle_alpha   90.00000000
_cell_angle_beta   90.00000000
_cell_angle_gamma   90.00000000
_symmetry_Int_Tables_number   1
_chemical_formula_structural   CuAs2
_chemical_formula_sum   'Cu2 As4'
_cell_volume   109.45039056
_cell_formula_units_Z   2
loop_
 _symmetry_equiv_pos_site_id
 _symmetry_equiv_pos_as_xyz
  1  'x, y, z'
loop_
 _atom_site_type_symbol
 _atom_site_label
 _atom_site_symmetry_multiplicity
 _atom_site_fract_x
 _atom_site_fract_y
 _atom_site_fract_z
 _atom_site_occupancy
  Cu  Cu1  1  0.500000  0.500000  0.500000  1.0
  Cu  Cu2  1  0.000000  0.000000  0.000000  1.0
  As  As3  1  0.500000  0.294026  0.874616  1.0
  As  As4  1  0.500000  0.705974  0.125384  1.0
  As  As5  1  0.000000  0.794026  0.625384  1.0
  As  As6  1  0.000000  0.205974  0.374616  1.0
