# generated using pymatgen
data_Ti2N
_symmetry_space_group_name_H-M   'P 1'
_cell_length_a   4.15148194
_cell_length_b   4.15148194
_cell_length_c   5.32276228
_cell_angle_alpha   112.95290581
_cell_angle_beta   112.95290581
_cell_angle_gamma   89.99999999
_symmetry_Int_Tables_number   1
_chemical_formula_structural   Ti2N
_chemical_formula_sum   'Ti4 N2'
_cell_volume   76.52406937
_cell_formula_units_Z   2
loop_
 _symmetry_equiv_pos_site_id
 _symmetry_equiv_pos_as_xyz
  1  'x, y, z'
loop_
 _atom_site_type_symbol
 _atom_site_label
 _atom_site_symmetry_multiplicity
 _atom_site_fract_x
 _atom_site_fract_y
 _atom_site_fract_z
 _atom_site_occupancy
  Ti  Ti1  1  0.856235  0.606235  0.712471  1.0
  Ti  Ti2  1  0.606235  0.856235  0.212471  1.0
  Ti  Ti3  1  0.393765  0.143765  0.787529  1.0
  Ti  Ti4  1  0.143765  0.393765  0.287529  1.0
  N  N5  1  0.625000  0.375000  0.250000  1.0
  N  N6  1  0.375000  0.625000  0.750000  1.0
