# generated using pymatgen
data_ThOs2
_symmetry_space_group_name_H-M   'P 1'
_cell_length_a   5.46676952
_cell_length_b   5.46676952
_cell_length_c   5.46676952
_cell_angle_alpha   60.00000000
_cell_angle_beta   59.99999999
_cell_angle_gamma   59.99999996
_symmetry_Int_Tables_number   1
_chemical_formula_structural   ThOs2
_chemical_formula_sum   'Th2 Os4'
_cell_volume   115.52535055
_cell_formula_units_Z   2
loop_
 _symmetry_equiv_pos_site_id
 _symmetry_equiv_pos_as_xyz
  1  'x, y, z'
loop_
 _atom_site_type_symbol
 _atom_site_label
 _atom_site_symmetry_multiplicity
 _atom_site_fract_x
 _atom_site_fract_y
 _atom_site_fract_z
 _atom_site_occupancy
  Th  Th1  1  0.875000  0.875000  0.875000  1.0
  Th  Th2  1  0.125000  0.125000  0.125000  1.0
  Os  Os3  1  0.500000  0.000000  0.500000  1.0
  Os  Os4  1  0.000000  0.500000  0.500000  1.0
  Os  Os5  1  0.500000  0.500000  0.500000  1.0
  Os  Os6  1  0.500000  0.500000  0.000000  1.0
