# generated using pymatgen
data_HfInCo2
_symmetry_space_group_name_H-M   'P 1'
_cell_length_a   4.39381211
_cell_length_b   4.39380997
_cell_length_c   4.39381911
_cell_angle_alpha   59.99944001
_cell_angle_beta   59.99963949
_cell_angle_gamma   60.00069074
_symmetry_Int_Tables_number   1
_chemical_formula_structural   HfInCo2
_chemical_formula_sum   'Hf1 In1 Co2'
_cell_volume   59.98037447
_cell_formula_units_Z   1
loop_
 _symmetry_equiv_pos_site_id
 _symmetry_equiv_pos_as_xyz
  1  'x, y, z'
loop_
 _atom_site_type_symbol
 _atom_site_label
 _atom_site_symmetry_multiplicity
 _atom_site_fract_x
 _atom_site_fract_y
 _atom_site_fract_z
 _atom_site_occupancy
  Hf  Hf1  1  0.250000  0.249999  0.250002  1.0
  In  In2  1  0.750000  0.750000  0.750000  1.0
  Co  Co3  1  0.499999  0.500001  0.499999  1.0
  Co  Co4  1  0.000001  0.000000  0.999999  1.0
