# generated using pymatgen
data_YErMg2
_symmetry_space_group_name_H-M   'P 1'
_cell_length_a   5.35434166
_cell_length_b   5.35434166
_cell_length_c   5.35434166
_cell_angle_alpha   60.08904837
_cell_angle_beta   60.08904837
_cell_angle_gamma   60.08904837
_symmetry_Int_Tables_number   1
_chemical_formula_structural   YErMg2
_chemical_formula_sum   'Y1 Er1 Mg2'
_cell_volume   108.76237543
_cell_formula_units_Z   1
loop_
 _symmetry_equiv_pos_site_id
 _symmetry_equiv_pos_as_xyz
  1  'x, y, z'
loop_
 _atom_site_type_symbol
 _atom_site_label
 _atom_site_symmetry_multiplicity
 _atom_site_fract_x
 _atom_site_fract_y
 _atom_site_fract_z
 _atom_site_occupancy
  Y  Y1  1  0.749999  0.749999  0.749999  1.0
  Er  Er2  1  0.250000  0.250000  0.250000  1.0
  Mg  Mg3  1  0.999998  0.999998  0.999998  1.0
  Mg  Mg4  1  0.500002  0.500002  0.500002  1.0
