# generated using pymatgen
data_MgCu4Sn
_symmetry_space_group_name_H-M   'P 1'
_cell_length_a   4.99390958
_cell_length_b   4.99390958
_cell_length_c   4.99390958
_cell_angle_alpha   60.00000001
_cell_angle_beta   60.00000000
_cell_angle_gamma   60.00000001
_symmetry_Int_Tables_number   1
_chemical_formula_structural   MgCu4Sn
_chemical_formula_sum   'Mg1 Cu4 Sn1'
_cell_volume   88.06574764
_cell_formula_units_Z   1
loop_
 _symmetry_equiv_pos_site_id
 _symmetry_equiv_pos_as_xyz
  1  'x, y, z'
loop_
 _atom_site_type_symbol
 _atom_site_label
 _atom_site_symmetry_multiplicity
 _atom_site_fract_x
 _atom_site_fract_y
 _atom_site_fract_z
 _atom_site_occupancy
  Mg  Mg1  1  0.250000  0.250000  0.250000  1.0
  Cu  Cu2  1  0.126400  0.624533  0.624533  1.0
  Cu  Cu3  1  0.624533  0.624533  0.126400  1.0
  Cu  Cu4  1  0.624533  0.126400  0.624533  1.0
  Cu  Cu5  1  0.624533  0.624533  0.624533  1.0
  Sn  Sn6  1  0.000000  0.000000  0.000000  1.0
