# generated using pymatgen
data_Fe2NiSe4
_symmetry_space_group_name_H-M   'P 1'
_cell_length_a   3.45792656
_cell_length_b   6.44684044
_cell_length_c   6.92599209
_cell_angle_alpha   120.71977032
_cell_angle_beta   119.32514127
_cell_angle_gamma   75.58444760
_symmetry_Int_Tables_number   1
_chemical_formula_structural   Fe2NiSe4
_chemical_formula_sum   'Fe2 Ni1 Se4'
_cell_volume   115.72385772
_cell_formula_units_Z   1
loop_
 _symmetry_equiv_pos_site_id
 _symmetry_equiv_pos_as_xyz
  1  'x, y, z'
loop_
 _atom_site_type_symbol
 _atom_site_label
 _atom_site_symmetry_multiplicity
 _atom_site_fract_x
 _atom_site_fract_y
 _atom_site_fract_z
 _atom_site_occupancy
  Fe  Fe1  1  0.272404  0.437730  0.019574  1.0
  Fe  Fe2  1  0.166038  0.415184  0.410648  1.0
  Ni  Ni3  1  0.195328  0.937898  0.712870  1.0
  Se  Se4  1  0.887216  0.707802  0.266090  1.0
  Se  Se5  1  0.549510  0.144764  0.164465  1.0
  Se  Se6  1  0.550095  0.208934  0.692700  1.0
  Se  Se7  1  0.879409  0.647688  0.733654  1.0
