# generated using pymatgen
data_CaPmAu2
_symmetry_space_group_name_H-M   'P 1'
_cell_length_a   5.18172847
_cell_length_b   5.18172847
_cell_length_c   5.18172847
_cell_angle_alpha   60.00666801
_cell_angle_beta   60.00666801
_cell_angle_gamma   60.00666801
_symmetry_Int_Tables_number   1
_chemical_formula_structural   CaPmAu2
_chemical_formula_sum   'Ca1 Pm1 Au2'
_cell_volume   98.39535706
_cell_formula_units_Z   1
loop_
 _symmetry_equiv_pos_site_id
 _symmetry_equiv_pos_as_xyz
  1  'x, y, z'
loop_
 _atom_site_type_symbol
 _atom_site_label
 _atom_site_symmetry_multiplicity
 _atom_site_fract_x
 _atom_site_fract_y
 _atom_site_fract_z
 _atom_site_occupancy
  Ca  Ca1  1  0.250004  0.250004  0.250004  1.0
  Pm  Pm2  1  0.749998  0.749998  0.749998  1.0
  Au  Au3  1  0.500001  0.500001  0.500001  1.0
  Au  Au4  1  0.999997  0.999997  0.999997  1.0
