# generated using pymatgen
data_TiAlOs2
_symmetry_space_group_name_H-M   'P 1'
_cell_length_a   4.33106629
_cell_length_b   4.33106629
_cell_length_c   4.33106629
_cell_angle_alpha   59.95083414
_cell_angle_beta   59.95083414
_cell_angle_gamma   59.95083414
_symmetry_Int_Tables_number   1
_chemical_formula_structural   TiAlOs2
_chemical_formula_sum   'Ti1 Al1 Os2'
_cell_volume   57.38322622
_cell_formula_units_Z   1
loop_
 _symmetry_equiv_pos_site_id
 _symmetry_equiv_pos_as_xyz
  1  'x, y, z'
loop_
 _atom_site_type_symbol
 _atom_site_label
 _atom_site_symmetry_multiplicity
 _atom_site_fract_x
 _atom_site_fract_y
 _atom_site_fract_z
 _atom_site_occupancy
  Ti  Ti1  1  0.749998  0.749998  0.749998  1.0
  Al  Al2  1  0.250001  0.250001  0.250001  1.0
  Os  Os3  1  0.000070  0.000070  0.000070  1.0
  Os  Os4  1  0.499932  0.499932  0.499932  1.0
