# generated using pymatgen
data_LiMg2
_symmetry_space_group_name_H-M   'P 1'
_cell_length_a   3.13766180
_cell_length_b   8.29394768
_cell_length_c   5.06611442
_cell_angle_alpha   90.00000000
_cell_angle_beta   90.00000000
_cell_angle_gamma   79.09660071
_symmetry_Int_Tables_number   1
_chemical_formula_structural   LiMg2
_chemical_formula_sum   'Li2 Mg4'
_cell_volume   129.45853299
_cell_formula_units_Z   2
loop_
 _symmetry_equiv_pos_site_id
 _symmetry_equiv_pos_as_xyz
  1  'x, y, z'
loop_
 _atom_site_type_symbol
 _atom_site_label
 _atom_site_symmetry_multiplicity
 _atom_site_fract_x
 _atom_site_fract_y
 _atom_site_fract_z
 _atom_site_occupancy
  Li  Li1  1  0.333145  0.333708  0.000000  1.0
  Li  Li2  1  0.111297  0.777404  0.499999  1.0
  Mg  Mg3  1  0.999889  0.000223  0.000000  1.0
  Mg  Mg4  1  0.666981  0.666040  0.000000  1.0
  Mg  Mg5  1  0.444556  0.110888  0.499999  1.0
  Mg  Mg6  1  0.777465  0.445072  0.499999  1.0
