# generated using pymatgen
data_ZnCl2
_symmetry_space_group_name_H-M   'P 1'
_cell_length_a   5.64812874
_cell_length_b   5.64812874
_cell_length_c   6.51748968
_cell_angle_alpha   115.67752155
_cell_angle_beta   115.67752155
_cell_angle_gamma   89.99999997
_symmetry_Int_Tables_number   1
_chemical_formula_structural   ZnCl2
_chemical_formula_sum   'Zn2 Cl4'
_cell_volume   164.30590897
_cell_formula_units_Z   2
loop_
 _symmetry_equiv_pos_site_id
 _symmetry_equiv_pos_as_xyz
  1  'x, y, z'
loop_
 _atom_site_type_symbol
 _atom_site_label
 _atom_site_symmetry_multiplicity
 _atom_site_fract_x
 _atom_site_fract_y
 _atom_site_fract_z
 _atom_site_occupancy
  Zn  Zn1  1  0.000000  0.000000  0.000000  1.0
  Zn  Zn2  1  0.250000  0.750000  0.500000  1.0
  Cl  Cl3  1  0.352427  0.375000  0.250000  1.0
  Cl  Cl4  1  0.125000  0.647573  0.750000  1.0
  Cl  Cl5  1  0.625000  0.102427  0.750000  1.0
  Cl  Cl6  1  0.897573  0.875000  0.250000  1.0
