# generated using pymatgen
data_CN2
_symmetry_space_group_name_H-M   'P 1'
_cell_length_a   3.31300000
_cell_length_b   3.31300000
_cell_length_c   4.74800000
_cell_angle_alpha   90.00000000
_cell_angle_beta   90.00000000
_cell_angle_gamma   90.00000000
_symmetry_Int_Tables_number   1
_chemical_formula_structural   CN2
_chemical_formula_sum   'C2 N4'
_cell_volume   52.11390081
_cell_formula_units_Z   2
loop_
 _symmetry_equiv_pos_site_id
 _symmetry_equiv_pos_as_xyz
  1  'x, y, z'
loop_
 _atom_site_type_symbol
 _atom_site_label
 _atom_site_symmetry_multiplicity
 _atom_site_fract_x
 _atom_site_fract_y
 _atom_site_fract_z
 _atom_site_occupancy
  C  C1  1  0.500000  0.500000  0.000000  1.0
  C  C2  1  0.000000  0.000000  0.000000  1.0
  N  N3  1  0.154420  0.345580  0.160800  1.0
  N  N4  1  0.345580  0.845580  0.839200  1.0
  N  N5  1  0.845580  0.654420  0.160800  1.0
  N  N6  1  0.654420  0.154420  0.839200  1.0
