# generated using pymatgen
data_BaCN2
_symmetry_space_group_name_H-M   'P 1'
_cell_length_a   4.33996908
_cell_length_b   4.33996908
_cell_length_c   15.48237897
_cell_angle_alpha   90.00000000
_cell_angle_beta   90.00000000
_cell_angle_gamma   120.00000301
_symmetry_Int_Tables_number   1
_chemical_formula_structural   BaCN2
_chemical_formula_sum   'Ba3 C3 N6'
_cell_volume   252.54663314
_cell_formula_units_Z   3
loop_
 _symmetry_equiv_pos_site_id
 _symmetry_equiv_pos_as_xyz
  1  'x, y, z'
loop_
 _atom_site_type_symbol
 _atom_site_label
 _atom_site_symmetry_multiplicity
 _atom_site_fract_x
 _atom_site_fract_y
 _atom_site_fract_z
 _atom_site_occupancy
  Ba  Ba1  1  0.000000  0.000000  0.000000  1.0
  Ba  Ba2  1  0.666667  0.333333  0.333333  1.0
  Ba  Ba3  1  0.333333  0.666667  0.666667  1.0
  C  C4  1  0.333333  0.666667  0.166667  1.0
  C  C5  1  0.000000  0.000000  0.500000  1.0
  C  C6  1  0.666667  0.333333  0.833333  1.0
  N  N7  1  0.333333  0.666667  0.086460  1.0
  N  N8  1  0.333333  0.666667  0.246874  1.0
  N  N9  1  0.000000  0.000000  0.419793  1.0
  N  N10  1  0.000000  0.000000  0.580207  1.0
  N  N11  1  0.666667  0.333333  0.753126  1.0
  N  N12  1  0.666667  0.333333  0.913540  1.0
