# generated using pymatgen
data_ZnSO4
_symmetry_space_group_name_H-M   'P 1'
_cell_length_a   5.55705380
_cell_length_b   5.55705248
_cell_length_c   5.55705168
_cell_angle_alpha   60.00000475
_cell_angle_beta   60.00001260
_cell_angle_gamma   60.00001183
_symmetry_Int_Tables_number   1
_chemical_formula_structural   ZnSO4
_chemical_formula_sum   'Zn1 S1 O4'
_cell_volume   121.34409116
_cell_formula_units_Z   1
loop_
 _symmetry_equiv_pos_site_id
 _symmetry_equiv_pos_as_xyz
  1  'x, y, z'
loop_
 _atom_site_type_symbol
 _atom_site_label
 _atom_site_symmetry_multiplicity
 _atom_site_fract_x
 _atom_site_fract_y
 _atom_site_fract_z
 _atom_site_occupancy
  Zn  Zn1  1  0.750000  0.750000  0.750000  1.0
  S  S2  1  0.999999  0.000000  0.000000  1.0
  O  O3  1  0.324696  0.891768  0.891768  1.0
  O  O4  1  0.891768  0.891768  0.324695  1.0
  O  O5  1  0.891768  0.324695  0.891768  1.0
  O  O6  1  0.891768  0.891768  0.891768  1.0
