# generated using pymatgen
data_NbBr2O
_symmetry_space_group_name_H-M   'P 1'
_cell_length_a   3.96320005
_cell_length_b   7.09595839
_cell_length_c   7.62368072
_cell_angle_alpha   103.99064887
_cell_angle_beta   105.05302016
_cell_angle_gamma   90.00147945
_symmetry_Int_Tables_number   1
_chemical_formula_structural   NbBr2O
_chemical_formula_sum   'Nb2 Br4 O2'
_cell_volume   200.44786103
_cell_formula_units_Z   2
loop_
 _symmetry_equiv_pos_site_id
 _symmetry_equiv_pos_as_xyz
  1  'x, y, z'
loop_
 _atom_site_type_symbol
 _atom_site_label
 _atom_site_symmetry_multiplicity
 _atom_site_fract_x
 _atom_site_fract_y
 _atom_site_fract_z
 _atom_site_occupancy
  Nb  Nb1  1  0.003241  0.714846  0.999735  1.0
  Nb  Nb2  1  0.003500  0.285176  0.000247  1.0
  Br  Br3  1  0.929653  0.935505  0.749970  1.0
  Br  Br4  1  0.899460  0.422603  0.704309  1.0
  Br  Br5  1  0.195465  0.577308  0.295558  1.0
  Br  Br6  1  0.178626  0.064606  0.250269  1.0
  O  O7  1  0.541228  0.720930  0.999489  1.0
  O  O8  1  0.541626  0.279025  0.000423  1.0
