# generated using pymatgen
data_LiBH4
_symmetry_space_group_name_H-M   'P 1'
_cell_length_a   4.18003883
_cell_length_b   4.17996759
_cell_length_c   6.70992170
_cell_angle_alpha   90.00000000
_cell_angle_beta   90.00000000
_cell_angle_gamma   120.00056369
_symmetry_Int_Tables_number   1
_chemical_formula_structural   LiBH4
_chemical_formula_sum   'Li2 B2 H8'
_cell_volume   101.53104302
_cell_formula_units_Z   2
loop_
 _symmetry_equiv_pos_site_id
 _symmetry_equiv_pos_as_xyz
  1  'x, y, z'
loop_
 _atom_site_type_symbol
 _atom_site_label
 _atom_site_symmetry_multiplicity
 _atom_site_fract_x
 _atom_site_fract_y
 _atom_site_fract_z
 _atom_site_occupancy
  Li  Li1  1  0.666692  0.333384  0.505882  1.0
  Li  Li2  1  0.333308  0.666616  0.005882  1.0
  B  B3  1  0.666676  0.333352  0.057793  1.0
  B  B4  1  0.333324  0.666648  0.557793  1.0
  H  H5  1  0.666692  0.333384  0.876311  1.0
  H  H6  1  0.333308  0.666616  0.376311  1.0
  H  H7  1  0.825369  0.174647  0.118330  1.0
  H  H8  1  0.825373  0.650745  0.118354  1.0
  H  H9  1  0.349278  0.174647  0.118330  1.0
  H  H10  1  0.174631  0.825353  0.618330  1.0
  H  H11  1  0.174627  0.349255  0.618354  1.0
  H  H12  1  0.650722  0.825353  0.618330  1.0
