# generated using pymatgen
data_ErCuSe2
_symmetry_space_group_name_H-M   'P 1'
_cell_length_a   4.11808898
_cell_length_b   4.11808910
_cell_length_c   6.22268986
_cell_angle_alpha   90.00000000
_cell_angle_beta   90.00000000
_cell_angle_gamma   119.99999904
_symmetry_Int_Tables_number   1
_chemical_formula_structural   ErCuSe2
_chemical_formula_sum   'Er1 Cu1 Se2'
_cell_volume   91.39033246
_cell_formula_units_Z   1
loop_
 _symmetry_equiv_pos_site_id
 _symmetry_equiv_pos_as_xyz
  1  'x, y, z'
loop_
 _atom_site_type_symbol
 _atom_site_label
 _atom_site_symmetry_multiplicity
 _atom_site_fract_x
 _atom_site_fract_y
 _atom_site_fract_z
 _atom_site_occupancy
  Er  Er1  1  0.000000  0.000000  0.493198  1.0
  Cu  Cu2  1  0.666667  0.333333  0.857164  1.0
  Se  Se3  1  0.333333  0.666667  0.767220  1.0
  Se  Se4  1  0.666667  0.333333  0.254418  1.0
