# generated using pymatgen
data_B2O3
_symmetry_space_group_name_H-M   'P 1'
_cell_length_a   4.66960477
_cell_length_b   7.87557639
_cell_length_c   4.16952670
_cell_angle_alpha   90.00000000
_cell_angle_beta   90.00000000
_cell_angle_gamma   90.00000000
_symmetry_Int_Tables_number   1
_chemical_formula_structural   B2O3
_chemical_formula_sum   'B8 O12'
_cell_volume   153.33780125
_cell_formula_units_Z   4
loop_
 _symmetry_equiv_pos_site_id
 _symmetry_equiv_pos_as_xyz
  1  'x, y, z'
loop_
 _atom_site_type_symbol
 _atom_site_label
 _atom_site_symmetry_multiplicity
 _atom_site_fract_x
 _atom_site_fract_y
 _atom_site_fract_z
 _atom_site_occupancy
  B  B1  1  0.341844  0.834598  0.432469  1.0
  B  B2  1  0.658156  0.165402  0.932469  1.0
  B  B3  1  0.658156  0.834598  0.932469  1.0
  B  B4  1  0.341844  0.165402  0.432469  1.0
  B  B5  1  0.841844  0.334598  0.432469  1.0
  B  B6  1  0.158156  0.665402  0.932469  1.0
  B  B7  1  0.158156  0.334598  0.932469  1.0
  B  B8  1  0.841844  0.665402  0.432469  1.0
  O  O9  1  0.759423  0.500000  0.496254  1.0
  O  O10  1  0.240577  0.500000  0.996254  1.0
  O  O11  1  0.629096  0.211139  0.583103  1.0
  O  O12  1  0.370904  0.788861  0.083103  1.0
  O  O13  1  0.370904  0.211139  0.083103  1.0
  O  O14  1  0.629096  0.788861  0.583103  1.0
  O  O15  1  0.259423  0.000000  0.496254  1.0
  O  O16  1  0.740577  0.000000  0.996254  1.0
  O  O17  1  0.129096  0.711139  0.583103  1.0
  O  O18  1  0.870904  0.288861  0.083103  1.0
  O  O19  1  0.870904  0.711139  0.083103  1.0
  O  O20  1  0.129096  0.288861  0.583103  1.0
