# generated using pymatgen
data_TiVO4
_symmetry_space_group_name_H-M   'P 1'
_cell_length_a   5.48215698
_cell_length_b   5.48215698
_cell_length_c   5.48215698
_cell_angle_alpha   72.52143677
_cell_angle_beta   107.47856323
_cell_angle_gamma   66.46544371
_symmetry_Int_Tables_number   1
_chemical_formula_structural   TiVO4
_chemical_formula_sum   'Ti2 V2 O8'
_cell_volume   126.35107668
_cell_formula_units_Z   2
loop_
 _symmetry_equiv_pos_site_id
 _symmetry_equiv_pos_as_xyz
  1  'x, y, z'
loop_
 _atom_site_type_symbol
 _atom_site_label
 _atom_site_symmetry_multiplicity
 _atom_site_fract_x
 _atom_site_fract_y
 _atom_site_fract_z
 _atom_site_occupancy
  Ti  Ti1  1  0.744761  0.755239  0.500000  1.0
  Ti  Ti2  1  0.494761  0.505239  0.000000  1.0
  V  V3  1  0.249393  0.250607  0.500000  1.0
  V  V4  1  0.999393  0.000607  0.000000  1.0
  O  O5  1  0.545442  0.251179  0.796620  1.0
  O  O6  1  0.058890  0.745898  0.804787  1.0
  O  O7  1  0.998821  0.297800  0.703380  1.0
  O  O8  1  0.504102  0.800686  0.695213  1.0
  O  O9  1  0.998821  0.704558  0.296620  1.0
  O  O10  1  0.504102  0.191110  0.304787  1.0
  O  O11  1  0.952200  0.251179  0.203380  1.0
  O  O12  1  0.449314  0.745898  0.195213  1.0
