# generated using pymatgen
data_Si3NiP4
_symmetry_space_group_name_H-M   'P 1'
_cell_length_a   5.20341572
_cell_length_b   5.20341572
_cell_length_c   6.38215880
_cell_angle_alpha   114.05750144
_cell_angle_beta   114.05750148
_cell_angle_gamma   89.99999995
_symmetry_Int_Tables_number   1
_chemical_formula_structural   Si3NiP4
_chemical_formula_sum   'Si3 Ni1 P4'
_cell_volume   141.19361585
_cell_formula_units_Z   1
loop_
 _symmetry_equiv_pos_site_id
 _symmetry_equiv_pos_as_xyz
  1  'x, y, z'
loop_
 _atom_site_type_symbol
 _atom_site_label
 _atom_site_symmetry_multiplicity
 _atom_site_fract_x
 _atom_site_fract_y
 _atom_site_fract_z
 _atom_site_occupancy
  Si  Si1  1  0.250000  0.750000  0.500000  1.0
  Si  Si2  1  0.500000  0.500000  0.000000  1.0
  Si  Si3  1  0.750000  0.250000  0.500000  1.0
  Ni  Ni4  1  0.000000  0.000000  0.000000  1.0
  P  P5  1  0.639564  0.123129  0.762692  1.0
  P  P6  1  0.123129  0.639564  0.762692  1.0
  P  P7  1  0.876871  0.876871  0.237308  1.0
  P  P8  1  0.360436  0.360436  0.237308  1.0
