# generated using pymatgen
data_PNO
_symmetry_space_group_name_H-M   'P 1'
_cell_length_a   4.68731231
_cell_length_b   4.68731231
_cell_length_c   5.00388345
_cell_angle_alpha   120.09497277
_cell_angle_beta   120.09497277
_cell_angle_gamma   90.07449565
_symmetry_Int_Tables_number   1
_chemical_formula_structural   PNO
_chemical_formula_sum   'P2 N2 O2'
_cell_volume   77.46433243
_cell_formula_units_Z   2
loop_
 _symmetry_equiv_pos_site_id
 _symmetry_equiv_pos_as_xyz
  1  'x, y, z'
loop_
 _atom_site_type_symbol
 _atom_site_label
 _atom_site_symmetry_multiplicity
 _atom_site_fract_x
 _atom_site_fract_y
 _atom_site_fract_z
 _atom_site_occupancy
  P  P1  1  0.010173  0.979813  0.999872  1.0
  P  P2  1  0.229813  0.760173  0.499872  1.0
  N  N3  1  0.133254  0.742655  0.750789  1.0
  N  N4  1  0.992655  0.883254  0.250789  1.0
  O  O5  1  0.251406  0.382700  0.249339  1.0
  O  O6  1  0.632700  0.001406  0.749339  1.0
