# generated using pymatgen
data_Ca3SiO5
_symmetry_space_group_name_H-M   'P 1'
_cell_length_a   7.25092422
_cell_length_b   7.25092376
_cell_length_c   5.55778470
_cell_angle_alpha   90.00000000
_cell_angle_beta   90.00000000
_cell_angle_gamma   120.00000212
_symmetry_Int_Tables_number   1
_chemical_formula_structural   Ca3SiO5
_chemical_formula_sum   'Ca6 Si2 O10'
_cell_volume   253.05740274
_cell_formula_units_Z   2
loop_
 _symmetry_equiv_pos_site_id
 _symmetry_equiv_pos_as_xyz
  1  'x, y, z'
loop_
 _atom_site_type_symbol
 _atom_site_label
 _atom_site_symmetry_multiplicity
 _atom_site_fract_x
 _atom_site_fract_y
 _atom_site_fract_z
 _atom_site_occupancy
  Ca  Ca1  1  0.151026  0.848974  0.765704  1.0
  Ca  Ca2  1  0.151026  0.302051  0.765704  1.0
  Ca  Ca3  1  0.302051  0.151026  0.265704  1.0
  Ca  Ca4  1  0.697949  0.848974  0.765704  1.0
  Ca  Ca5  1  0.848974  0.697949  0.265704  1.0
  Ca  Ca6  1  0.848974  0.151026  0.265704  1.0
  Si  Si7  1  0.333333  0.666667  0.235610  1.0
  Si  Si8  1  0.666667  0.333333  0.735610  1.0
  O  O9  1  0.209311  0.790689  0.335643  1.0
  O  O10  1  0.000000  0.000000  0.524360  1.0
  O  O11  1  0.000000  0.000000  0.024360  1.0
  O  O12  1  0.209311  0.418623  0.335643  1.0
  O  O13  1  0.333333  0.666667  0.934648  1.0
  O  O14  1  0.581377  0.790689  0.335643  1.0
  O  O15  1  0.418623  0.209311  0.835643  1.0
  O  O16  1  0.666667  0.333333  0.434648  1.0
  O  O17  1  0.790689  0.581377  0.835643  1.0
  O  O18  1  0.790689  0.209311  0.835643  1.0
