# generated using pymatgen
data_NbGaO4
_symmetry_space_group_name_H-M   'P 1'
_cell_length_a   3.84317151
_cell_length_b   6.63458382
_cell_length_c   6.72708443
_cell_angle_alpha   107.16138931
_cell_angle_beta   90.00000000
_cell_angle_gamma   106.83590745
_symmetry_Int_Tables_number   1
_chemical_formula_structural   NbGaO4
_chemical_formula_sum   'Nb2 Ga2 O8'
_cell_volume   156.17835458
_cell_formula_units_Z   2
loop_
 _symmetry_equiv_pos_site_id
 _symmetry_equiv_pos_as_xyz
  1  'x, y, z'
loop_
 _atom_site_type_symbol
 _atom_site_label
 _atom_site_symmetry_multiplicity
 _atom_site_fract_x
 _atom_site_fract_y
 _atom_site_fract_z
 _atom_site_occupancy
  Nb  Nb1  1  0.101496  0.206675  0.233038  1.0
  Nb  Nb2  1  0.894821  0.793325  0.766962  1.0
  Ga  Ga3  1  0.195100  0.394253  0.816080  1.0
  Ga  Ga4  1  0.800848  0.605747  0.183920  1.0
  O  O5  1  0.861375  0.726648  0.483209  1.0
  O  O6  1  0.134727  0.273352  0.516791  1.0
  O  O7  1  0.944052  0.891692  0.135133  1.0
  O  O8  1  0.052360  0.108308  0.864867  1.0
  O  O9  1  0.256324  0.516565  0.144903  1.0
  O  O10  1  0.739759  0.483435  0.855097  1.0
  O  O11  1  0.359133  0.722007  0.795857  1.0
  O  O12  1  0.637126  0.277993  0.204143  1.0
