# generated using pymatgen
data_RbCoN
_symmetry_space_group_name_H-M   'P 1'
_cell_length_a   10.88834499
_cell_length_b   3.49525682
_cell_length_c   6.48448988
_cell_angle_alpha   90.00000000
_cell_angle_beta   90.00000000
_cell_angle_gamma   90.00000000
_symmetry_Int_Tables_number   1
_chemical_formula_structural   RbCoN
_chemical_formula_sum   'Rb4 Co4 N4'
_cell_volume   246.78387620
_cell_formula_units_Z   4
loop_
 _symmetry_equiv_pos_site_id
 _symmetry_equiv_pos_as_xyz
  1  'x, y, z'
loop_
 _atom_site_type_symbol
 _atom_site_label
 _atom_site_symmetry_multiplicity
 _atom_site_fract_x
 _atom_site_fract_y
 _atom_site_fract_z
 _atom_site_occupancy
  Rb  Rb1  1  0.662887  0.250000  0.078761  1.0
  Rb  Rb2  1  0.162887  0.250000  0.421239  1.0
  Rb  Rb3  1  0.337113  0.750000  0.921239  1.0
  Rb  Rb4  1  0.837113  0.750000  0.578761  1.0
  Co  Co5  1  0.544544  0.250000  0.593295  1.0
  Co  Co6  1  0.044544  0.250000  0.906705  1.0
  Co  Co7  1  0.455456  0.750000  0.406705  1.0
  Co  Co8  1  0.955456  0.750000  0.093295  1.0
  N  N9  1  0.934686  0.250000  0.141601  1.0
  N  N10  1  0.434686  0.250000  0.358399  1.0
  N  N11  1  0.065314  0.750000  0.858399  1.0
  N  N12  1  0.565314  0.750000  0.641601  1.0
