# generated using pymatgen
data_BaY2F8
_symmetry_space_group_name_H-M   'P 1'
_cell_length_a   6.39332559
_cell_length_b   6.39332559
_cell_length_c   4.33404414
_cell_angle_alpha   84.78555755
_cell_angle_beta   95.21444245
_cell_angle_gamma   67.24652196
_symmetry_Int_Tables_number   1
_chemical_formula_structural   BaY2F8
_chemical_formula_sum   'Ba1 Y2 F8'
_cell_volume   161.15048205
_cell_formula_units_Z   1
loop_
 _symmetry_equiv_pos_site_id
 _symmetry_equiv_pos_as_xyz
  1  'x, y, z'
loop_
 _atom_site_type_symbol
 _atom_site_label
 _atom_site_symmetry_multiplicity
 _atom_site_fract_x
 _atom_site_fract_y
 _atom_site_fract_z
 _atom_site_occupancy
  Ba  Ba1  1  0.001815  0.998185  0.998872  1.0
  Y  Y2  1  0.326087  0.321948  0.499215  1.0
  Y  Y3  1  0.678052  0.673913  0.499215  1.0
  F  F4  1  0.049117  0.669010  0.562902  1.0
  F  F5  1  0.330990  0.950883  0.562902  1.0
  F  F6  1  0.393013  0.606987  0.224251  1.0
  F  F7  1  0.746955  0.733748  0.000572  1.0
  F  F8  1  0.266252  0.253045  0.000572  1.0
  F  F9  1  0.609624  0.390376  0.771810  1.0
  F  F10  1  0.675365  0.043331  0.439843  1.0
  F  F11  1  0.956669  0.324635  0.439843  1.0
