# generated using pymatgen
data_LiFeAs
_symmetry_space_group_name_H-M   'P 1'
_cell_length_a   3.79062862
_cell_length_b   3.79062862
_cell_length_c   6.10745115
_cell_angle_alpha   90.00000000
_cell_angle_beta   90.00000000
_cell_angle_gamma   90.00000000
_symmetry_Int_Tables_number   1
_chemical_formula_structural   LiFeAs
_chemical_formula_sum   'Li2 Fe2 As2'
_cell_volume   87.75714311
_cell_formula_units_Z   2
loop_
 _symmetry_equiv_pos_site_id
 _symmetry_equiv_pos_as_xyz
  1  'x, y, z'
loop_
 _atom_site_type_symbol
 _atom_site_label
 _atom_site_symmetry_multiplicity
 _atom_site_fract_x
 _atom_site_fract_y
 _atom_site_fract_z
 _atom_site_occupancy
  Li  Li1  1  0.750000  0.750000  0.168968  1.0
  Li  Li2  1  0.250000  0.250000  0.831032  1.0
  Fe  Fe3  1  0.750000  0.250000  0.500000  1.0
  Fe  Fe4  1  0.250000  0.750000  0.500000  1.0
  As  As5  1  0.750000  0.750000  0.725714  1.0
  As  As6  1  0.250000  0.250000  0.274286  1.0
