# generated using pymatgen
data_KCoN
_symmetry_space_group_name_H-M   'P 1'
_cell_length_a   10.29145721
_cell_length_b   3.47997906
_cell_length_c   6.30456888
_cell_angle_alpha   90.00000000
_cell_angle_beta   90.00000000
_cell_angle_gamma   90.00000000
_symmetry_Int_Tables_number   1
_chemical_formula_structural   KCoN
_chemical_formula_sum   'K4 Co4 N4'
_cell_volume   225.79218032
_cell_formula_units_Z   4
loop_
 _symmetry_equiv_pos_site_id
 _symmetry_equiv_pos_as_xyz
  1  'x, y, z'
loop_
 _atom_site_type_symbol
 _atom_site_label
 _atom_site_symmetry_multiplicity
 _atom_site_fract_x
 _atom_site_fract_y
 _atom_site_fract_z
 _atom_site_occupancy
  K  K1  1  0.664487  0.250000  0.077557  1.0
  K  K2  1  0.164487  0.250000  0.422443  1.0
  K  K3  1  0.335513  0.750000  0.922443  1.0
  K  K4  1  0.835513  0.750000  0.577557  1.0
  Co  Co5  1  0.543512  0.250000  0.600362  1.0
  Co  Co6  1  0.043512  0.250000  0.899638  1.0
  Co  Co7  1  0.456488  0.750000  0.399638  1.0
  Co  Co8  1  0.956488  0.750000  0.100362  1.0
  N  N9  1  0.935829  0.250000  0.152557  1.0
  N  N10  1  0.435829  0.250000  0.347443  1.0
  N  N11  1  0.064171  0.750000  0.847443  1.0
  N  N12  1  0.564171  0.750000  0.652557  1.0
