# generated using pymatgen
data_Li5OsN4
_symmetry_space_group_name_H-M   'P 1'
_cell_length_a   6.72486136
_cell_length_b   6.63032743
_cell_length_c   4.97182980
_cell_angle_alpha   90.00000000
_cell_angle_beta   90.00000000
_cell_angle_gamma   90.00000000
_symmetry_Int_Tables_number   1
_chemical_formula_structural   Li5OsN4
_chemical_formula_sum   'Li10 Os2 N8'
_cell_volume   221.68410989
_cell_formula_units_Z   2
loop_
 _symmetry_equiv_pos_site_id
 _symmetry_equiv_pos_as_xyz
  1  'x, y, z'
loop_
 _atom_site_type_symbol
 _atom_site_label
 _atom_site_symmetry_multiplicity
 _atom_site_fract_x
 _atom_site_fract_y
 _atom_site_fract_z
 _atom_site_occupancy
  Li  Li1  1  0.550301  0.489586  0.243697  1.0
  Li  Li2  1  0.949699  0.489586  0.243697  1.0
  Li  Li3  1  0.550301  0.010414  0.243697  1.0
  Li  Li4  1  0.949699  0.010414  0.243697  1.0
  Li  Li5  1  0.449699  0.510414  0.756303  1.0
  Li  Li6  1  0.050301  0.510414  0.756303  1.0
  Li  Li7  1  0.449699  0.989586  0.756303  1.0
  Li  Li8  1  0.050301  0.989586  0.756303  1.0
  Li  Li9  1  0.750000  0.750000  0.689361  1.0
  Li  Li10  1  0.250000  0.250000  0.310639  1.0
  Os  Os11  1  0.750000  0.250000  0.721635  1.0
  Os  Os12  1  0.250000  0.750000  0.278365  1.0
  N  N13  1  0.750000  0.018381  0.927091  1.0
  N  N14  1  0.750000  0.481619  0.927091  1.0
  N  N15  1  0.250000  0.981619  0.072909  1.0
  N  N16  1  0.250000  0.518381  0.072909  1.0
  N  N17  1  0.479801  0.750000  0.482501  1.0
  N  N18  1  0.020199  0.750000  0.482501  1.0
  N  N19  1  0.520199  0.250000  0.517499  1.0
  N  N20  1  0.979801  0.250000  0.517499  1.0
