# generated using pymatgen
data_Zn2CrN3
_symmetry_space_group_name_H-M   'P 1'
_cell_length_a   5.54243667
_cell_length_b   5.57539563
_cell_length_c   5.24938587
_cell_angle_alpha   90.00000000
_cell_angle_beta   90.00000000
_cell_angle_gamma   120.19690599
_symmetry_Int_Tables_number   1
_chemical_formula_structural   Zn2CrN3
_chemical_formula_sum   'Zn4 Cr2 N6'
_cell_volume   140.20077928
_cell_formula_units_Z   2
loop_
 _symmetry_equiv_pos_site_id
 _symmetry_equiv_pos_as_xyz
  1  'x, y, z'
loop_
 _atom_site_type_symbol
 _atom_site_label
 _atom_site_symmetry_multiplicity
 _atom_site_fract_x
 _atom_site_fract_y
 _atom_site_fract_z
 _atom_site_occupancy
  Zn  Zn1  1  0.330061  0.831643  0.473006  1.0
  Zn  Zn2  1  0.669939  0.501583  0.473006  1.0
  Zn  Zn3  1  0.669939  0.168357  0.973006  1.0
  Zn  Zn4  1  0.330061  0.498417  0.973006  1.0
  Cr  Cr5  1  0.000000  0.836760  0.959613  1.0
  Cr  Cr6  1  0.000000  0.163240  0.459613  1.0
  N  N7  1  0.303942  0.834235  0.862825  1.0
  N  N8  1  0.696058  0.530293  0.862825  1.0
  N  N9  1  0.696058  0.165765  0.362825  1.0
  N  N10  1  0.303942  0.469707  0.362825  1.0
  N  N11  1  0.000000  0.860767  0.313104  1.0
  N  N12  1  0.000000  0.139233  0.813104  1.0
