# generated using pymatgen
data_NaNiN
_symmetry_space_group_name_H-M   'P 1'
_cell_length_a   8.87062338
_cell_length_b   3.44177741
_cell_length_c   5.74261727
_cell_angle_alpha   90.00000000
_cell_angle_beta   90.00000000
_cell_angle_gamma   90.00000000
_symmetry_Int_Tables_number   1
_chemical_formula_structural   NaNiN
_chemical_formula_sum   'Na4 Ni4 N4'
_cell_volume   175.32618918
_cell_formula_units_Z   4
loop_
 _symmetry_equiv_pos_site_id
 _symmetry_equiv_pos_as_xyz
  1  'x, y, z'
loop_
 _atom_site_type_symbol
 _atom_site_label
 _atom_site_symmetry_multiplicity
 _atom_site_fract_x
 _atom_site_fract_y
 _atom_site_fract_z
 _atom_site_occupancy
  Na  Na1  1  0.662956  0.250000  0.067204  1.0
  Na  Na2  1  0.162956  0.250000  0.432796  1.0
  Na  Na3  1  0.337044  0.750000  0.932796  1.0
  Na  Na4  1  0.837044  0.750000  0.567204  1.0
  Ni  Ni5  1  0.550851  0.250000  0.611689  1.0
  Ni  Ni6  1  0.050851  0.250000  0.888311  1.0
  Ni  Ni7  1  0.449149  0.750000  0.388311  1.0
  Ni  Ni8  1  0.949149  0.750000  0.111689  1.0
  N  N9  1  0.930558  0.250000  0.194436  1.0
  N  N10  1  0.430558  0.250000  0.305564  1.0
  N  N11  1  0.069442  0.750000  0.805564  1.0
  N  N12  1  0.569442  0.750000  0.694436  1.0
