# generated using pymatgen
data_WS2
_symmetry_space_group_name_H-M   'P 1'
_cell_length_a   3.19073100
_cell_length_b   3.19073066
_cell_length_c   31.30360300
_cell_angle_alpha   90.00000000
_cell_angle_beta   90.00000000
_cell_angle_gamma   60.00000685
_symmetry_Int_Tables_number   1
_chemical_formula_structural   WS2
_chemical_formula_sum   'W3 S6'
_cell_volume   275.99761304
_cell_formula_units_Z   3
loop_
 _symmetry_equiv_pos_site_id
 _symmetry_equiv_pos_as_xyz
  1  'x, y, z'
loop_
 _atom_site_type_symbol
 _atom_site_label
 _atom_site_symmetry_multiplicity
 _atom_site_fract_x
 _atom_site_fract_y
 _atom_site_fract_z
 _atom_site_occupancy
  W  W1  1  0.666666  0.666667  0.340274  1.0
  W  W2  1  0.333334  0.333333  0.113425  1.0
  W  W3  1  0.333334  0.333333  0.567123  1.0
  S  S4  1  0.666666  0.666667  0.063174  1.0
  S  S5  1  0.666666  0.666667  0.516872  1.0
  S  S6  1  0.333334  0.333333  0.290023  1.0
  S  S7  1  0.666666  0.666667  0.163676  1.0
  S  S8  1  0.666666  0.666667  0.617374  1.0
  S  S9  1  0.333334  0.333333  0.390525  1.0
