# generated using pymatgen
data_CeO2
_symmetry_space_group_name_H-M   'P 1'
_cell_length_a   5.13465749
_cell_length_b   5.13465749
_cell_length_c   3.63642045
_cell_angle_alpha   90.00000000
_cell_angle_beta   90.00000000
_cell_angle_gamma   90.00000000
_symmetry_Int_Tables_number   1
_chemical_formula_structural   CeO2
_chemical_formula_sum   'Ce2 O4'
_cell_volume   95.87316166
_cell_formula_units_Z   2
loop_
 _symmetry_equiv_pos_site_id
 _symmetry_equiv_pos_as_xyz
  1  'x, y, z'
loop_
 _atom_site_type_symbol
 _atom_site_label
 _atom_site_symmetry_multiplicity
 _atom_site_fract_x
 _atom_site_fract_y
 _atom_site_fract_z
 _atom_site_occupancy
  Ce  Ce1  1  0.500000  0.500000  0.500000  1.0
  Ce  Ce2  1  0.000000  0.000000  0.000000  1.0
  O  O3  1  0.187340  0.812660  0.500000  1.0
  O  O4  1  0.812660  0.187340  0.500000  1.0
  O  O5  1  0.312660  0.312660  0.000000  1.0
  O  O6  1  0.687340  0.687340  0.000000  1.0
