# generated using pymatgen
data_Mo(WSe3)2
_symmetry_space_group_name_H-M   'P 1'
_cell_length_a   3.32271087
_cell_length_b   3.32265078
_cell_length_c   30.74079880
_cell_angle_alpha   90.00000000
_cell_angle_beta   90.00000000
_cell_angle_gamma   120.00059814
_symmetry_Int_Tables_number   1
_chemical_formula_structural   Mo(WSe3)2
_chemical_formula_sum   'Mo1 W2 Se6'
_cell_volume   293.91409443
_cell_formula_units_Z   1
loop_
 _symmetry_equiv_pos_site_id
 _symmetry_equiv_pos_as_xyz
  1  'x, y, z'
loop_
 _atom_site_type_symbol
 _atom_site_label
 _atom_site_symmetry_multiplicity
 _atom_site_fract_x
 _atom_site_fract_y
 _atom_site_fract_z
 _atom_site_occupancy
  Mo  Mo1  1  0.666689  0.333377  0.346982  1.0
  W  W2  1  0.333313  0.666625  0.115643  1.0
  W  W3  1  0.333313  0.666625  0.578322  1.0
  Se  Se4  1  0.333352  0.666705  0.401511  1.0
  Se  Se5  1  0.666645  0.333290  0.060853  1.0
  Se  Se6  1  0.666646  0.333291  0.523524  1.0
  Se  Se7  1  0.666646  0.333291  0.170441  1.0
  Se  Se8  1  0.666645  0.333290  0.633111  1.0
  Se  Se9  1  0.333352  0.666705  0.292454  1.0
