# generated using pymatgen
data_DyAlZn
_symmetry_space_group_name_H-M   'P 1'
_cell_length_a   4.48419066
_cell_length_b   4.48493438
_cell_length_c   7.16241056
_cell_angle_alpha   90.00000000
_cell_angle_beta   90.00000000
_cell_angle_gamma   119.99451464
_symmetry_Int_Tables_number   1
_chemical_formula_structural   DyAlZn
_chemical_formula_sum   'Dy2 Al2 Zn2'
_cell_volume   124.75386490
_cell_formula_units_Z   2
loop_
 _symmetry_equiv_pos_site_id
 _symmetry_equiv_pos_as_xyz
  1  'x, y, z'
loop_
 _atom_site_type_symbol
 _atom_site_label
 _atom_site_symmetry_multiplicity
 _atom_site_fract_x
 _atom_site_fract_y
 _atom_site_fract_z
 _atom_site_occupancy
  Dy  Dy1  1  0.000000  0.000000  0.500000  1.0
  Dy  Dy2  1  0.000000  0.000000  0.000000  1.0
  Al  Al3  1  0.333166  0.666333  0.250000  1.0
  Al  Al4  1  0.666834  0.333667  0.750000  1.0
  Zn  Zn5  1  0.333183  0.666367  0.750000  1.0
  Zn  Zn6  1  0.666817  0.333633  0.250000  1.0
