# generated using pymatgen
data_KBi2
_symmetry_space_group_name_H-M   'P 1'
_cell_length_a   6.79113680
_cell_length_b   6.79113680
_cell_length_c   6.79113680
_cell_angle_alpha   60.00000001
_cell_angle_beta   60.00000000
_cell_angle_gamma   60.00000001
_symmetry_Int_Tables_number   1
_chemical_formula_structural   KBi2
_chemical_formula_sum   'K2 Bi4'
_cell_volume   221.46874215
_cell_formula_units_Z   2
loop_
 _symmetry_equiv_pos_site_id
 _symmetry_equiv_pos_as_xyz
  1  'x, y, z'
loop_
 _atom_site_type_symbol
 _atom_site_label
 _atom_site_symmetry_multiplicity
 _atom_site_fract_x
 _atom_site_fract_y
 _atom_site_fract_z
 _atom_site_occupancy
  K  K1  1  0.625000  0.625000  0.625000  1.0
  K  K2  1  0.375000  0.375000  0.375000  1.0
  Bi  Bi3  1  0.500000  0.000000  0.000000  1.0
  Bi  Bi4  1  0.000000  0.500000  0.000000  1.0
  Bi  Bi5  1  0.000000  0.000000  0.500000  1.0
  Bi  Bi6  1  0.000000  0.000000  0.000000  1.0
