# generated using pymatgen
data_Te2Mo3W(Se2S)2
_symmetry_space_group_name_H-M   'P 1'
_cell_length_a   3.34191803
_cell_length_b   3.34191922
_cell_length_c   38.18365166
_cell_angle_alpha   89.99993787
_cell_angle_beta   90.00000029
_cell_angle_gamma   119.99997547
_symmetry_Int_Tables_number   1
_chemical_formula_structural   Te2Mo3W(Se2S)2
_chemical_formula_sum   'Te2 Mo3 W1 Se4 S2'
_cell_volume   369.31754492
_cell_formula_units_Z   1
loop_
 _symmetry_equiv_pos_site_id
 _symmetry_equiv_pos_as_xyz
  1  'x, y, z'
loop_
 _atom_site_type_symbol
 _atom_site_label
 _atom_site_symmetry_multiplicity
 _atom_site_fract_x
 _atom_site_fract_y
 _atom_site_fract_z
 _atom_site_occupancy
  Te  Te1  1  0.333360  0.666719  0.331465  1.0
  Te  Te2  1  0.333352  0.666705  0.232128  1.0
  Mo  Mo3  1  0.333308  0.666616  0.093821  1.0
  Mo  Mo4  1  0.333318  0.666635  0.469752  1.0
  Mo  Mo5  1  0.666686  0.333373  0.281792  1.0
  W  W6  1  0.666689  0.333379  0.657539  1.0
  Se  Se7  1  0.666640  0.333280  0.050166  1.0
  Se  Se8  1  0.666646  0.333292  0.426054  1.0
  Se  Se9  1  0.666647  0.333293  0.137515  1.0
  Se  Se10  1  0.666642  0.333284  0.513444  1.0
  S  S11  1  0.333354  0.666708  0.697423  1.0
  S  S12  1  0.333357  0.666716  0.617649  1.0
