# generated using pymatgen
data_Mn3HO6
_symmetry_space_group_name_H-M   'P 1'
_cell_length_a   2.99721279
_cell_length_b   4.62560852
_cell_length_c   7.24210969
_cell_angle_alpha   92.04167618
_cell_angle_beta   101.93709958
_cell_angle_gamma   90.00043697
_symmetry_Int_Tables_number   1
_chemical_formula_structural   Mn3HO6
_chemical_formula_sum   'Mn3 H1 O6'
_cell_volume   98.16775633
_cell_formula_units_Z   1
loop_
 _symmetry_equiv_pos_site_id
 _symmetry_equiv_pos_as_xyz
  1  'x, y, z'
loop_
 _atom_site_type_symbol
 _atom_site_label
 _atom_site_symmetry_multiplicity
 _atom_site_fract_x
 _atom_site_fract_y
 _atom_site_fract_z
 _atom_site_occupancy
  Mn  Mn1  1  0.998711  0.994408  0.996639  1.0
  Mn  Mn2  1  0.344688  0.475932  0.690236  1.0
  Mn  Mn3  1  0.652397  0.518670  0.304774  1.0
  H  H4  1  0.231412  0.942398  0.462820  1.0
  O  O5  1  0.562175  0.813005  0.123978  1.0
  O  O6  1  0.435296  0.179951  0.870348  1.0
  O  O7  1  0.100666  0.305081  0.201446  1.0
  O  O8  1  0.899561  0.682789  0.799053  1.0
  O  O9  1  0.225589  0.729102  0.451319  1.0
  O  O10  1  0.769356  0.294826  0.538898  1.0
