# generated using pymatgen
data_Er2Mg3Ru
_symmetry_space_group_name_H-M   'P 1'
_cell_length_a   3.35828265
_cell_length_b   3.35828265
_cell_length_c   12.49684092
_cell_angle_alpha   90.00000000
_cell_angle_beta   90.00000000
_cell_angle_gamma   90.00000000
_symmetry_Int_Tables_number   1
_chemical_formula_structural   Er2Mg3Ru
_chemical_formula_sum   'Er2 Mg3 Ru1'
_cell_volume   140.94015116
_cell_formula_units_Z   1
loop_
 _symmetry_equiv_pos_site_id
 _symmetry_equiv_pos_as_xyz
  1  'x, y, z'
loop_
 _atom_site_type_symbol
 _atom_site_label
 _atom_site_symmetry_multiplicity
 _atom_site_fract_x
 _atom_site_fract_y
 _atom_site_fract_z
 _atom_site_occupancy
  Er  Er1  1  0.500000  0.500000  0.868141  1.0
  Er  Er2  1  0.500000  0.500000  0.131859  1.0
  Mg  Mg3  1  0.000000  0.000000  0.664768  1.0
  Mg  Mg4  1  0.000000  0.000000  0.335232  1.0
  Mg  Mg5  1  0.500000  0.500000  0.500000  1.0
  Ru  Ru6  1  0.000000  0.000000  0.000000  1.0
