# generated using pymatgen
data_ErCuSn
_symmetry_space_group_name_H-M   'P 1'
_cell_length_a   4.52119971
_cell_length_b   4.51979952
_cell_length_c   7.25800358
_cell_angle_alpha   90.00000000
_cell_angle_beta   90.00000000
_cell_angle_gamma   120.01024837
_symmetry_Int_Tables_number   1
_chemical_formula_structural   ErCuSn
_chemical_formula_sum   'Er2 Cu2 Sn2'
_cell_volume   128.43275952
_cell_formula_units_Z   2
loop_
 _symmetry_equiv_pos_site_id
 _symmetry_equiv_pos_as_xyz
  1  'x, y, z'
loop_
 _atom_site_type_symbol
 _atom_site_label
 _atom_site_symmetry_multiplicity
 _atom_site_fract_x
 _atom_site_fract_y
 _atom_site_fract_z
 _atom_site_occupancy
  Er  Er1  1  0.000000  0.000000  0.500000  1.0
  Er  Er2  1  0.000000  0.000000  0.000000  1.0
  Cu  Cu3  1  0.333276  0.666551  0.250000  1.0
  Cu  Cu4  1  0.666724  0.333449  0.750000  1.0
  Sn  Sn5  1  0.333297  0.666594  0.750000  1.0
  Sn  Sn6  1  0.666703  0.333406  0.250000  1.0
