# generated using pymatgen
data_ErZnIn
_symmetry_space_group_name_H-M   'P 1'
_cell_length_a   4.66269903
_cell_length_b   4.66216938
_cell_length_c   7.14628347
_cell_angle_alpha   90.00000000
_cell_angle_beta   90.00000000
_cell_angle_gamma   120.00375819
_symmetry_Int_Tables_number   1
_chemical_formula_structural   ErZnIn
_chemical_formula_sum   'Er2 Zn2 In2'
_cell_volume   134.53022050
_cell_formula_units_Z   2
loop_
 _symmetry_equiv_pos_site_id
 _symmetry_equiv_pos_as_xyz
  1  'x, y, z'
loop_
 _atom_site_type_symbol
 _atom_site_label
 _atom_site_symmetry_multiplicity
 _atom_site_fract_x
 _atom_site_fract_y
 _atom_site_fract_z
 _atom_site_occupancy
  Er  Er1  1  0.000000  0.000000  0.500000  1.0
  Er  Er2  1  0.000000  0.000000  0.000000  1.0
  Zn  Zn3  1  0.333319  0.666638  0.750000  1.0
  Zn  Zn4  1  0.666681  0.333362  0.250000  1.0
  In  In5  1  0.333327  0.666654  0.250000  1.0
  In  In6  1  0.666673  0.333346  0.750000  1.0
