# generated using pymatgen
data_BaNa2Mg(PO4)2
_symmetry_space_group_name_H-M   'P 1'
_cell_length_a   5.38383266
_cell_length_b   5.38385444
_cell_length_c   7.06342874
_cell_angle_alpha   90.00000003
_cell_angle_beta   89.99844235
_cell_angle_gamma   120.00013094
_symmetry_Int_Tables_number   1
_chemical_formula_structural   BaNa2Mg(PO4)2
_chemical_formula_sum   'Ba1 Na2 Mg1 P2 O8'
_cell_volume   177.30888096
_cell_formula_units_Z   1
loop_
 _symmetry_equiv_pos_site_id
 _symmetry_equiv_pos_as_xyz
  1  'x, y, z'
loop_
 _atom_site_type_symbol
 _atom_site_label
 _atom_site_symmetry_multiplicity
 _atom_site_fract_x
 _atom_site_fract_y
 _atom_site_fract_z
 _atom_site_occupancy
  Ba  Ba1  1  0.000000  0.000000  0.500000  1.0
  Na  Na2  1  0.333382  0.666691  0.180922  1.0
  Na  Na3  1  0.666618  0.333309  0.819078  1.0
  Mg  Mg4  1  0.000000  0.000000  0.000000  1.0
  P  P5  1  0.333348  0.666674  0.743207  1.0
  P  P6  1  0.666652  0.333326  0.256793  1.0
  O  O7  1  0.333387  0.666694  0.525363  1.0
  O  O8  1  0.666613  0.333306  0.474637  1.0
  O  O9  1  0.822922  0.645861  0.178685  1.0
  O  O10  1  0.822922  0.177061  0.178685  1.0
  O  O11  1  0.354117  0.177059  0.178673  1.0
  O  O12  1  0.177078  0.354139  0.821315  1.0
  O  O13  1  0.177078  0.822939  0.821315  1.0
  O  O14  1  0.645883  0.822941  0.821327  1.0
