# generated using pymatgen
data_Mg2CrN3
_symmetry_space_group_name_H-M   'P 1'
_cell_length_a   5.76861781
_cell_length_b   5.80094890
_cell_length_c   5.02302092
_cell_angle_alpha   90.00000000
_cell_angle_beta   90.00000000
_cell_angle_gamma   120.18556612
_symmetry_Int_Tables_number   1
_chemical_formula_structural   Mg2CrN3
_chemical_formula_sum   'Mg4 Cr2 N6'
_cell_volume   145.29521180
_cell_formula_units_Z   2
loop_
 _symmetry_equiv_pos_site_id
 _symmetry_equiv_pos_as_xyz
  1  'x, y, z'
loop_
 _atom_site_type_symbol
 _atom_site_label
 _atom_site_symmetry_multiplicity
 _atom_site_fract_x
 _atom_site_fract_y
 _atom_site_fract_z
 _atom_site_occupancy
  Mg  Mg1  1  0.324398  0.333753  0.474190  1.0
  Mg  Mg2  1  0.675602  0.009355  0.474190  1.0
  Mg  Mg3  1  0.675602  0.666247  0.974190  1.0
  Mg  Mg4  1  0.324398  0.990645  0.974190  1.0
  Cr  Cr5  1  0.000000  0.670246  0.479334  1.0
  Cr  Cr6  1  0.000000  0.329754  0.979334  1.0
  N  N7  1  0.298259  0.332905  0.900081  1.0
  N  N8  1  0.701741  0.034646  0.900081  1.0
  N  N9  1  0.701741  0.667095  0.400081  1.0
  N  N10  1  0.298259  0.965354  0.400081  1.0
  N  N11  1  0.000000  0.627971  0.844125  1.0
  N  N12  1  0.000000  0.372029  0.344125  1.0
