# generated using pymatgen
data_Sr3ReN3
_symmetry_space_group_name_H-M   'P 1'
_cell_length_a   7.83039744
_cell_length_b   7.82976935
_cell_length_c   5.42781676
_cell_angle_alpha   90.00000000
_cell_angle_beta   90.00000000
_cell_angle_gamma   119.99067376
_symmetry_Int_Tables_number   1
_chemical_formula_structural   Sr3ReN3
_chemical_formula_sum   'Sr6 Re2 N6'
_cell_volume   288.22350157
_cell_formula_units_Z   2
loop_
 _symmetry_equiv_pos_site_id
 _symmetry_equiv_pos_as_xyz
  1  'x, y, z'
loop_
 _atom_site_type_symbol
 _atom_site_label
 _atom_site_symmetry_multiplicity
 _atom_site_fract_x
 _atom_site_fract_y
 _atom_site_fract_z
 _atom_site_occupancy
  Sr  Sr1  1  0.902298  0.644505  0.250000  1.0
  Sr  Sr2  1  0.742196  0.097725  0.250000  1.0
  Sr  Sr3  1  0.355521  0.257807  0.250000  1.0
  Sr  Sr4  1  0.097702  0.355495  0.750000  1.0
  Sr  Sr5  1  0.257804  0.902275  0.750000  1.0
  Sr  Sr6  1  0.644479  0.742193  0.750000  1.0
  Re  Re7  1  0.666736  0.333402  0.750000  1.0
  Re  Re8  1  0.333264  0.666598  0.250000  1.0
  N  N9  1  0.892035  0.578642  0.750000  1.0
  N  N10  1  0.686622  0.107919  0.750000  1.0
  N  N11  1  0.421267  0.313376  0.750000  1.0
  N  N12  1  0.107965  0.421358  0.250000  1.0
  N  N13  1  0.313378  0.892081  0.250000  1.0
  N  N14  1  0.578733  0.686624  0.250000  1.0
