# generated using pymatgen
data_Ca2CoN2
_symmetry_space_group_name_H-M   'P 1'
_cell_length_a   3.56158468
_cell_length_b   5.03681530
_cell_length_c   6.60550876
_cell_angle_alpha   89.99999908
_cell_angle_beta   105.63080378
_cell_angle_gamma   134.99970645
_symmetry_Int_Tables_number   1
_chemical_formula_structural   Ca2CoN2
_chemical_formula_sum   'Ca2 Co1 N2'
_cell_volume   77.46885800
_cell_formula_units_Z   1
loop_
 _symmetry_equiv_pos_site_id
 _symmetry_equiv_pos_as_xyz
  1  'x, y, z'
loop_
 _atom_site_type_symbol
 _atom_site_label
 _atom_site_symmetry_multiplicity
 _atom_site_fract_x
 _atom_site_fract_y
 _atom_site_fract_z
 _atom_site_occupancy
  Ca  Ca1  1  0.696390  0.348195  0.196270  1.0
  Ca  Ca2  1  0.303610  0.651805  0.803730  1.0
  Co  Co3  1  0.000000  0.000000  0.500000  1.0
  N  N4  1  0.288387  0.144193  0.788576  1.0
  N  N5  1  0.711613  0.855807  0.211424  1.0
