# generated using pymatgen
data_EuZnGe
_symmetry_space_group_name_H-M   'P 1'
_cell_length_a   4.32202408
_cell_length_b   7.59180569
_cell_length_c   4.39679223
_cell_angle_alpha   90.00000000
_cell_angle_beta   90.00000000
_cell_angle_gamma   90.00000000
_symmetry_Int_Tables_number   1
_chemical_formula_structural   EuZnGe
_chemical_formula_sum   'Eu2 Zn2 Ge2'
_cell_volume   144.26740157
_cell_formula_units_Z   2
loop_
 _symmetry_equiv_pos_site_id
 _symmetry_equiv_pos_as_xyz
  1  'x, y, z'
loop_
 _atom_site_type_symbol
 _atom_site_label
 _atom_site_symmetry_multiplicity
 _atom_site_fract_x
 _atom_site_fract_y
 _atom_site_fract_z
 _atom_site_occupancy
  Eu  Eu1  1  0.250000  0.232507  0.000000  1.0
  Eu  Eu2  1  0.750000  0.767493  0.000000  1.0
  Zn  Zn3  1  0.250000  0.575632  0.500000  1.0
  Zn  Zn4  1  0.750000  0.424368  0.500000  1.0
  Ge  Ge5  1  0.250000  0.906494  0.500000  1.0
  Ge  Ge6  1  0.750000  0.093506  0.500000  1.0
