# generated using pymatgen
data_Mo2SeS3
_symmetry_space_group_name_H-M   'P 1'
_cell_length_a   3.22522638
_cell_length_b   3.22263575
_cell_length_c   37.88840919
_cell_angle_alpha   89.96832075
_cell_angle_beta   90.00000000
_cell_angle_gamma   120.02659588
_symmetry_Int_Tables_number   1
_chemical_formula_structural   Mo2SeS3
_chemical_formula_sum   'Mo4 Se2 S6'
_cell_volume   340.95093504
_cell_formula_units_Z   2
loop_
 _symmetry_equiv_pos_site_id
 _symmetry_equiv_pos_as_xyz
  1  'x, y, z'
loop_
 _atom_site_type_symbol
 _atom_site_label
 _atom_site_symmetry_multiplicity
 _atom_site_fract_x
 _atom_site_fract_y
 _atom_site_fract_z
 _atom_site_occupancy
  Mo  Mo1  1  0.333513  0.667027  0.092941  1.0
  Mo  Mo2  1  0.333483  0.666966  0.468528  1.0
  Mo  Mo3  1  0.666712  0.333424  0.281878  1.0
  Mo  Mo4  1  0.666173  0.332347  0.659549  1.0
  Se  Se5  1  0.333077  0.666156  0.704721  1.0
  Se  Se6  1  0.333215  0.666432  0.614405  1.0
  S  S7  1  0.333211  0.666422  0.322955  1.0
  S  S8  1  0.667074  0.334147  0.051868  1.0
  S  S9  1  0.666868  0.333734  0.427439  1.0
  S  S10  1  0.666607  0.333214  0.134012  1.0
  S  S11  1  0.666425  0.332849  0.509622  1.0
  S  S12  1  0.333641  0.667283  0.240831  1.0
