# generated using pymatgen
data_LaNi3Rh2
_symmetry_space_group_name_H-M   'P 1'
_cell_length_a   5.07733022
_cell_length_b   5.07733047
_cell_length_c   4.20455623
_cell_angle_alpha   90.00000000
_cell_angle_beta   90.00000000
_cell_angle_gamma   120.09160365
_symmetry_Int_Tables_number   1
_chemical_formula_structural   LaNi3Rh2
_chemical_formula_sum   'La1 Ni3 Rh2'
_cell_volume   93.78211396
_cell_formula_units_Z   1
loop_
 _symmetry_equiv_pos_site_id
 _symmetry_equiv_pos_as_xyz
  1  'x, y, z'
loop_
 _atom_site_type_symbol
 _atom_site_label
 _atom_site_symmetry_multiplicity
 _atom_site_fract_x
 _atom_site_fract_y
 _atom_site_fract_z
 _atom_site_occupancy
  La  La1  1  0.000020  0.000020  0.000000  1.0
  Ni  Ni2  1  0.500014  0.500014  0.500000  1.0
  Ni  Ni3  1  0.500011  0.000015  0.500000  1.0
  Ni  Ni4  1  0.000015  0.500011  0.500000  1.0
  Rh  Rh5  1  0.666568  0.333471  0.000000  1.0
  Rh  Rh6  1  0.333471  0.666568  0.000000  1.0
