# generated using pymatgen
data_CaMnO2
_symmetry_space_group_name_H-M   'P 1'
_cell_length_a   3.29105135
_cell_length_b   4.73774371
_cell_length_c   6.54302244
_cell_angle_alpha   90.00001931
_cell_angle_beta   90.02831148
_cell_angle_gamma   90.00030469
_symmetry_Int_Tables_number   1
_chemical_formula_structural   CaMnO2
_chemical_formula_sum   'Ca2 Mn2 O4'
_cell_volume   102.01982613
_cell_formula_units_Z   2
loop_
 _symmetry_equiv_pos_site_id
 _symmetry_equiv_pos_as_xyz
  1  'x, y, z'
loop_
 _atom_site_type_symbol
 _atom_site_label
 _atom_site_symmetry_multiplicity
 _atom_site_fract_x
 _atom_site_fract_y
 _atom_site_fract_z
 _atom_site_occupancy
  Ca  Ca1  1  0.562396  0.501187  0.884483  1.0
  Ca  Ca2  1  0.062478  0.001188  0.615518  1.0
  Mn  Mn3  1  0.562553  0.505450  0.372549  1.0
  Mn  Mn4  1  0.062319  0.005445  0.127457  1.0
  O  O5  1  0.062562  0.493459  0.140653  1.0
  O  O6  1  0.562589  0.999909  0.883825  1.0
  O  O7  1  0.062265  0.499910  0.616180  1.0
  O  O8  1  0.562293  0.993458  0.359350  1.0
