# generated using pymatgen
data_LaSbPd
_symmetry_space_group_name_H-M   'P 1'
_cell_length_a   4.65435000
_cell_length_b   4.65391513
_cell_length_c   8.20214228
_cell_angle_alpha   90.00000000
_cell_angle_beta   90.00000000
_cell_angle_gamma   120.00309111
_symmetry_Int_Tables_number   1
_chemical_formula_structural   LaSbPd
_chemical_formula_sum   'La2 Sb2 Pd2'
_cell_volume   153.85864365
_cell_formula_units_Z   2
loop_
 _symmetry_equiv_pos_site_id
 _symmetry_equiv_pos_as_xyz
  1  'x, y, z'
loop_
 _atom_site_type_symbol
 _atom_site_label
 _atom_site_symmetry_multiplicity
 _atom_site_fract_x
 _atom_site_fract_y
 _atom_site_fract_z
 _atom_site_occupancy
  La  La1  1  0.000000  0.000000  0.500000  1.0
  La  La2  1  0.000000  0.000000  0.000000  1.0
  Sb  Sb3  1  0.333325  0.666651  0.750000  1.0
  Sb  Sb4  1  0.666675  0.333349  0.250000  1.0
  Pd  Pd5  1  0.333316  0.666633  0.250000  1.0
  Pd  Pd6  1  0.666684  0.333367  0.750000  1.0
