# generated using pymatgen
data_LaTeCl
_symmetry_space_group_name_H-M   'P 1'
_cell_length_a   4.55693366
_cell_length_b   4.55693366
_cell_length_c   8.33663698
_cell_angle_alpha   90.00000000
_cell_angle_beta   90.00000000
_cell_angle_gamma   90.00000000
_symmetry_Int_Tables_number   1
_chemical_formula_structural   LaTeCl
_chemical_formula_sum   'La2 Te2 Cl2'
_cell_volume   173.11563887
_cell_formula_units_Z   2
loop_
 _symmetry_equiv_pos_site_id
 _symmetry_equiv_pos_as_xyz
  1  'x, y, z'
loop_
 _atom_site_type_symbol
 _atom_site_label
 _atom_site_symmetry_multiplicity
 _atom_site_fract_x
 _atom_site_fract_y
 _atom_site_fract_z
 _atom_site_occupancy
  La  La1  1  0.750000  0.750000  0.758364  1.0
  La  La2  1  0.250000  0.250000  0.241636  1.0
  Te  Te3  1  0.750000  0.750000  0.361869  1.0
  Te  Te4  1  0.250000  0.250000  0.638131  1.0
  Cl  Cl5  1  0.750000  0.250000  0.000000  1.0
  Cl  Cl6  1  0.250000  0.750000  0.000000  1.0
