# generated using pymatgen
data_Li3HoSb2
_symmetry_space_group_name_H-M   'P 1'
_cell_length_a   4.54260126
_cell_length_b   4.54267543
_cell_length_c   7.14971900
_cell_angle_alpha   89.99999999
_cell_angle_beta   90.00126302
_cell_angle_gamma   120.00054607
_symmetry_Int_Tables_number   1
_chemical_formula_structural   Li3HoSb2
_chemical_formula_sum   'Li3 Ho1 Sb2'
_cell_volume   127.77136669
_cell_formula_units_Z   1
loop_
 _symmetry_equiv_pos_site_id
 _symmetry_equiv_pos_as_xyz
  1  'x, y, z'
loop_
 _atom_site_type_symbol
 _atom_site_label
 _atom_site_symmetry_multiplicity
 _atom_site_fract_x
 _atom_site_fract_y
 _atom_site_fract_z
 _atom_site_occupancy
  Li  Li1  1  0.666620  0.333310  0.351078  1.0
  Li  Li2  1  0.333380  0.666690  0.648922  1.0
  Li  Li3  1  0.000000  0.000000  0.500000  1.0
  Ho  Ho4  1  0.000000  0.000000  0.000000  1.0
  Sb  Sb5  1  0.666609  0.333304  0.753831  1.0
  Sb  Sb6  1  0.333391  0.666696  0.246169  1.0
