# generated using pymatgen
data_Li3PrBi2
_symmetry_space_group_name_H-M   'P 1'
_cell_length_a   4.73275861
_cell_length_b   4.73276245
_cell_length_c   7.50502913
_cell_angle_alpha   89.99999999
_cell_angle_beta   89.99585595
_cell_angle_gamma   120.00002612
_symmetry_Int_Tables_number   1
_chemical_formula_structural   Li3PrBi2
_chemical_formula_sum   'Li3 Pr1 Bi2'
_cell_volume   145.58343391
_cell_formula_units_Z   1
loop_
 _symmetry_equiv_pos_site_id
 _symmetry_equiv_pos_as_xyz
  1  'x, y, z'
loop_
 _atom_site_type_symbol
 _atom_site_label
 _atom_site_symmetry_multiplicity
 _atom_site_fract_x
 _atom_site_fract_y
 _atom_site_fract_z
 _atom_site_occupancy
  Li  Li1  1  0.666662  0.333331  0.649644  1.0
  Li  Li2  1  0.333338  0.666669  0.350356  1.0
  Li  Li3  1  0.000000  0.000000  0.500000  1.0
  Pr  Pr4  1  0.000000  0.000000  0.000000  1.0
  Bi  Bi5  1  0.666671  0.333335  0.255523  1.0
  Bi  Bi6  1  0.333329  0.666665  0.744477  1.0
