# generated using pymatgen
data_Li3SmBi2
_symmetry_space_group_name_H-M   'P 1'
_cell_length_a   4.69188440
_cell_length_b   4.69184193
_cell_length_c   7.40065299
_cell_angle_alpha   89.99999998
_cell_angle_beta   89.99659096
_cell_angle_gamma   119.99970190
_symmetry_Int_Tables_number   1
_chemical_formula_structural   Li3SmBi2
_chemical_formula_sum   'Li3 Sm1 Bi2'
_cell_volume   141.08883638
_cell_formula_units_Z   1
loop_
 _symmetry_equiv_pos_site_id
 _symmetry_equiv_pos_as_xyz
  1  'x, y, z'
loop_
 _atom_site_type_symbol
 _atom_site_label
 _atom_site_symmetry_multiplicity
 _atom_site_fract_x
 _atom_site_fract_y
 _atom_site_fract_z
 _atom_site_occupancy
  Li  Li1  1  0.666672  0.333336  0.650560  1.0
  Li  Li2  1  0.333328  0.666664  0.349440  1.0
  Li  Li3  1  0.000000  0.000000  0.500000  1.0
  Sm  Sm4  1  0.000000  0.000000  0.000000  1.0
  Bi  Bi5  1  0.666677  0.333338  0.250932  1.0
  Bi  Bi6  1  0.333323  0.666662  0.749068  1.0
