# generated using pymatgen
data_LiBeB
_symmetry_space_group_name_H-M   'P 1'
_cell_length_a   3.70561048
_cell_length_b   3.00125203
_cell_length_c   5.69386743
_cell_angle_alpha   90.00000000
_cell_angle_beta   98.62352743
_cell_angle_gamma   90.00000000
_symmetry_Int_Tables_number   1
_chemical_formula_structural   LiBeB
_chemical_formula_sum   'Li2 Be2 B2'
_cell_volume   62.60829477
_cell_formula_units_Z   2
loop_
 _symmetry_equiv_pos_site_id
 _symmetry_equiv_pos_as_xyz
  1  'x, y, z'
loop_
 _atom_site_type_symbol
 _atom_site_label
 _atom_site_symmetry_multiplicity
 _atom_site_fract_x
 _atom_site_fract_y
 _atom_site_fract_z
 _atom_site_occupancy
  Li  Li1  1  0.226525  0.250000  0.341660  1.0
  Li  Li2  1  0.773475  0.750000  0.658340  1.0
  Be  Be3  1  0.352587  0.250000  0.887927  1.0
  Be  Be4  1  0.647413  0.750000  0.112073  1.0
  B  B5  1  0.881893  0.250000  0.973631  1.0
  B  B6  1  0.118107  0.750000  0.026369  1.0
