# generated using pymatgen
data_Ti2MnBe
_symmetry_space_group_name_H-M   'P 1'
_cell_length_a   4.19633702
_cell_length_b   4.19634274
_cell_length_c   4.19634157
_cell_angle_alpha   59.99991672
_cell_angle_beta   60.00000792
_cell_angle_gamma   60.00001070
_symmetry_Int_Tables_number   1
_chemical_formula_structural   Ti2MnBe
_chemical_formula_sum   'Ti2 Mn1 Be1'
_cell_volume   52.25128001
_cell_formula_units_Z   1
loop_
 _symmetry_equiv_pos_site_id
 _symmetry_equiv_pos_as_xyz
  1  'x, y, z'
loop_
 _atom_site_type_symbol
 _atom_site_label
 _atom_site_symmetry_multiplicity
 _atom_site_fract_x
 _atom_site_fract_y
 _atom_site_fract_z
 _atom_site_occupancy
  Ti  Ti1  1  0.000000  0.000000  0.000000  1.0
  Ti  Ti2  1  0.500000  0.500001  0.500001  1.0
  Mn  Mn3  1  0.750001  0.749998  0.749998  1.0
  Be  Be4  1  0.249999  0.250000  0.250000  1.0
