# generated using pymatgen
data_Mg2Ge
_symmetry_space_group_name_H-M   'P 1'
_cell_length_a   4.73675976
_cell_length_b   4.73696073
_cell_length_c   6.09886752
_cell_angle_alpha   90.00000000
_cell_angle_beta   90.00000000
_cell_angle_gamma   119.99859659
_symmetry_Int_Tables_number   1
_chemical_formula_structural   Mg2Ge
_chemical_formula_sum   'Mg4 Ge2'
_cell_volume   118.51330674
_cell_formula_units_Z   2
loop_
 _symmetry_equiv_pos_site_id
 _symmetry_equiv_pos_as_xyz
  1  'x, y, z'
loop_
 _atom_site_type_symbol
 _atom_site_label
 _atom_site_symmetry_multiplicity
 _atom_site_fract_x
 _atom_site_fract_y
 _atom_site_fract_z
 _atom_site_occupancy
  Mg  Mg1  1  0.000000  0.000000  0.500000  1.0
  Mg  Mg2  1  0.000000  0.000000  0.000000  1.0
  Mg  Mg3  1  0.333330  0.666661  0.750000  1.0
  Mg  Mg4  1  0.666670  0.333339  0.250000  1.0
  Ge  Ge5  1  0.333321  0.666643  0.250000  1.0
  Ge  Ge6  1  0.666679  0.333357  0.750000  1.0
