# generated using pymatgen
data_MnS2
_symmetry_space_group_name_H-M   'P 1'
_cell_length_a   4.68157270
_cell_length_b   5.55288125
_cell_length_c   3.25803270
_cell_angle_alpha   90.00000000
_cell_angle_beta   90.00000000
_cell_angle_gamma   90.00000000
_symmetry_Int_Tables_number   1
_chemical_formula_structural   MnS2
_chemical_formula_sum   'Mn2 S4'
_cell_volume   84.69652593
_cell_formula_units_Z   2
loop_
 _symmetry_equiv_pos_site_id
 _symmetry_equiv_pos_as_xyz
  1  'x, y, z'
loop_
 _atom_site_type_symbol
 _atom_site_label
 _atom_site_symmetry_multiplicity
 _atom_site_fract_x
 _atom_site_fract_y
 _atom_site_fract_z
 _atom_site_occupancy
  Mn  Mn1  1  0.500000  0.500000  0.500000  1.0
  Mn  Mn2  1  0.000000  0.000000  0.000000  1.0
  S  S3  1  0.698138  0.131618  0.500000  1.0
  S  S4  1  0.301862  0.868382  0.500000  1.0
  S  S5  1  0.198138  0.368382  0.000000  1.0
  S  S6  1  0.801862  0.631618  0.000000  1.0
