# generated using pymatgen
data_Sr3WN3
_symmetry_space_group_name_H-M   'P 1'
_cell_length_a   7.98222400
_cell_length_b   7.98228696
_cell_length_c   5.38429400
_cell_angle_alpha   90.00000000
_cell_angle_beta   90.00000000
_cell_angle_gamma   119.99986059
_symmetry_Int_Tables_number   1
_chemical_formula_structural   Sr3WN3
_chemical_formula_sum   'Sr6 W2 N6'
_cell_volume   297.10588544
_cell_formula_units_Z   2
loop_
 _symmetry_equiv_pos_site_id
 _symmetry_equiv_pos_as_xyz
  1  'x, y, z'
loop_
 _atom_site_type_symbol
 _atom_site_label
 _atom_site_symmetry_multiplicity
 _atom_site_fract_x
 _atom_site_fract_y
 _atom_site_fract_z
 _atom_site_occupancy
  Sr  Sr1  1  0.902358  0.648133  0.250000  1.0
  Sr  Sr2  1  0.745777  0.097643  0.250000  1.0
  Sr  Sr3  1  0.351860  0.254219  0.250000  1.0
  Sr  Sr4  1  0.097642  0.351867  0.750000  1.0
  Sr  Sr5  1  0.254223  0.902357  0.750000  1.0
  Sr  Sr6  1  0.648140  0.745781  0.750000  1.0
  W  W7  1  0.666656  0.333330  0.750000  1.0
  W  W8  1  0.333344  0.666670  0.250000  1.0
  N  N9  1  0.883302  0.581990  0.750000  1.0
  N  N10  1  0.698685  0.116696  0.750000  1.0
  N  N11  1  0.418004  0.301309  0.750000  1.0
  N  N12  1  0.116698  0.418010  0.250000  1.0
  N  N13  1  0.301315  0.883304  0.250000  1.0
  N  N14  1  0.581996  0.698691  0.250000  1.0
