# generated using pymatgen
data_Ca3FeN3
_symmetry_space_group_name_H-M   'P 1'
_cell_length_a   7.21951058
_cell_length_b   4.97969561
_cell_length_c   7.21990852
_cell_angle_alpha   90.00000000
_cell_angle_beta   119.97953178
_cell_angle_gamma   90.00000000
_symmetry_Int_Tables_number   1
_chemical_formula_structural   Ca3FeN3
_chemical_formula_sum   'Ca6 Fe2 N6'
_cell_volume   224.83422281
_cell_formula_units_Z   2
loop_
 _symmetry_equiv_pos_site_id
 _symmetry_equiv_pos_as_xyz
  1  'x, y, z'
loop_
 _atom_site_type_symbol
 _atom_site_label
 _atom_site_symmetry_multiplicity
 _atom_site_fract_x
 _atom_site_fract_y
 _atom_site_fract_z
 _atom_site_occupancy
  Ca  Ca1  1  0.725225  0.250000  0.085241  1.0
  Ca  Ca2  1  0.359778  0.250000  0.274393  1.0
  Ca  Ca3  1  0.915139  0.250000  0.640633  1.0
  Ca  Ca4  1  0.274775  0.750000  0.914759  1.0
  Ca  Ca5  1  0.640222  0.750000  0.725607  1.0
  Ca  Ca6  1  0.084861  0.750000  0.359367  1.0
  Fe  Fe7  1  0.666437  0.750000  0.333255  1.0
  Fe  Fe8  1  0.333563  0.250000  0.666745  1.0
  N  N9  1  0.694619  0.750000  0.104972  1.0
  N  N10  1  0.410306  0.750000  0.304977  1.0
  N  N11  1  0.894639  0.750000  0.589134  1.0
  N  N12  1  0.305381  0.250000  0.895028  1.0
  N  N13  1  0.589694  0.250000  0.695023  1.0
  N  N14  1  0.105361  0.250000  0.410866  1.0
