# generated using pymatgen
data_NpSeO
_symmetry_space_group_name_H-M   'P 1'
_cell_length_a   3.88125344
_cell_length_b   3.88125344
_cell_length_c   6.98253316
_cell_angle_alpha   90.00000000
_cell_angle_beta   90.00000000
_cell_angle_gamma   90.00000000
_symmetry_Int_Tables_number   1
_chemical_formula_structural   NpSeO
_chemical_formula_sum   'Np2 Se2 O2'
_cell_volume   105.18577514
_cell_formula_units_Z   2
loop_
 _symmetry_equiv_pos_site_id
 _symmetry_equiv_pos_as_xyz
  1  'x, y, z'
loop_
 _atom_site_type_symbol
 _atom_site_label
 _atom_site_symmetry_multiplicity
 _atom_site_fract_x
 _atom_site_fract_y
 _atom_site_fract_z
 _atom_site_occupancy
  Np  Np1  1  0.750000  0.750000  0.819181  1.0
  Np  Np2  1  0.250000  0.250000  0.180819  1.0
  Se  Se3  1  0.750000  0.750000  0.369987  1.0
  Se  Se4  1  0.250000  0.250000  0.630013  1.0
  O  O5  1  0.750000  0.250000  0.000000  1.0
  O  O6  1  0.250000  0.750000  0.000000  1.0
