# generated using pymatgen
data_ReN2
_symmetry_space_group_name_H-M   'P 1'
_cell_length_a   4.39010417
_cell_length_b   4.39010417
_cell_length_c   2.67656402
_cell_angle_alpha   90.00000000
_cell_angle_beta   90.00000000
_cell_angle_gamma   90.00000000
_symmetry_Int_Tables_number   1
_chemical_formula_structural   ReN2
_chemical_formula_sum   'Re2 N4'
_cell_volume   51.58545750
_cell_formula_units_Z   2
loop_
 _symmetry_equiv_pos_site_id
 _symmetry_equiv_pos_as_xyz
  1  'x, y, z'
loop_
 _atom_site_type_symbol
 _atom_site_label
 _atom_site_symmetry_multiplicity
 _atom_site_fract_x
 _atom_site_fract_y
 _atom_site_fract_z
 _atom_site_occupancy
  Re  Re1  1  0.500000  0.500000  0.500000  1.0
  Re  Re2  1  0.000000  0.000000  0.500000  1.0
  N  N3  1  0.614372  0.114372  0.000000  1.0
  N  N4  1  0.385628  0.885628  0.000000  1.0
  N  N5  1  0.885628  0.614372  0.000000  1.0
  N  N6  1  0.114372  0.385628  0.000000  1.0
