# generated using pymatgen
data_CaSnHg
_symmetry_space_group_name_H-M   'P 1'
_cell_length_a   4.92795216
_cell_length_b   4.92730723
_cell_length_c   7.89405032
_cell_angle_alpha   90.00000000
_cell_angle_beta   90.00000000
_cell_angle_gamma   120.00432988
_symmetry_Int_Tables_number   1
_chemical_formula_structural   CaSnHg
_chemical_formula_sum   'Ca2 Sn2 Hg2'
_cell_volume   165.99220631
_cell_formula_units_Z   2
loop_
 _symmetry_equiv_pos_site_id
 _symmetry_equiv_pos_as_xyz
  1  'x, y, z'
loop_
 _atom_site_type_symbol
 _atom_site_label
 _atom_site_symmetry_multiplicity
 _atom_site_fract_x
 _atom_site_fract_y
 _atom_site_fract_z
 _atom_site_occupancy
  Ca  Ca1  1  0.000000  0.000000  0.500000  1.0
  Ca  Ca2  1  0.000000  0.000000  0.000000  1.0
  Sn  Sn3  1  0.333324  0.666648  0.750000  1.0
  Sn  Sn4  1  0.666676  0.333352  0.250000  1.0
  Hg  Hg5  1  0.333316  0.666632  0.250000  1.0
  Hg  Hg6  1  0.666684  0.333368  0.750000  1.0
