# generated using pymatgen
data_SrMg6Mo
_symmetry_space_group_name_H-M   'P 1'
_cell_length_a   6.55989374
_cell_length_b   9.23229852
_cell_length_c   4.36084233
_cell_angle_alpha   90.00000000
_cell_angle_beta   90.00000000
_cell_angle_gamma   134.72402778
_symmetry_Int_Tables_number   1
_chemical_formula_structural   SrMg6Mo
_chemical_formula_sum   'Sr1 Mg6 Mo1'
_cell_volume   187.64794810
_cell_formula_units_Z   1
loop_
 _symmetry_equiv_pos_site_id
 _symmetry_equiv_pos_as_xyz
  1  'x, y, z'
loop_
 _atom_site_type_symbol
 _atom_site_label
 _atom_site_symmetry_multiplicity
 _atom_site_fract_x
 _atom_site_fract_y
 _atom_site_fract_z
 _atom_site_occupancy
  Sr  Sr1  1  0.248073  0.374036  0.250000  1.0
  Mg  Mg2  1  0.751933  0.378401  0.250000  1.0
  Mg  Mg3  1  0.751933  0.873531  0.250000  1.0
  Mg  Mg4  1  0.251093  0.091787  0.750000  1.0
  Mg  Mg5  1  0.251093  0.659307  0.750000  1.0
  Mg  Mg6  1  0.685899  0.092951  0.750000  1.0
  Mg  Mg7  1  0.812867  0.656433  0.750000  1.0
  Mo  Mo8  1  0.247108  0.873554  0.250000  1.0
