# generated using pymatgen
data_SmCoSi
_symmetry_space_group_name_H-M   'P 1'
_cell_length_a   3.98836078
_cell_length_b   3.98836078
_cell_length_c   6.80079139
_cell_angle_alpha   90.00000000
_cell_angle_beta   90.00000000
_cell_angle_gamma   90.00000000
_symmetry_Int_Tables_number   1
_chemical_formula_structural   SmCoSi
_chemical_formula_sum   'Sm2 Co2 Si2'
_cell_volume   108.18033630
_cell_formula_units_Z   2
loop_
 _symmetry_equiv_pos_site_id
 _symmetry_equiv_pos_as_xyz
  1  'x, y, z'
loop_
 _atom_site_type_symbol
 _atom_site_label
 _atom_site_symmetry_multiplicity
 _atom_site_fract_x
 _atom_site_fract_y
 _atom_site_fract_z
 _atom_site_occupancy
  Sm  Sm1  1  0.750000  0.750000  0.318995  1.0
  Sm  Sm2  1  0.250000  0.250000  0.681005  1.0
  Co  Co3  1  0.750000  0.250000  0.000000  1.0
  Co  Co4  1  0.250000  0.750000  0.000000  1.0
  Si  Si5  1  0.750000  0.750000  0.823475  1.0
  Si  Si6  1  0.250000  0.250000  0.176525  1.0
