# generated using pymatgen
data_SmTlCd
_symmetry_space_group_name_H-M   'P 1'
_cell_length_a   5.01551996
_cell_length_b   5.01593426
_cell_length_c   7.38776534
_cell_angle_alpha   90.00000000
_cell_angle_beta   90.00000000
_cell_angle_gamma   119.99726773
_symmetry_Int_Tables_number   1
_chemical_formula_structural   SmTlCd
_chemical_formula_sum   'Sm2 Tl2 Cd2'
_cell_volume   160.96204440
_cell_formula_units_Z   2
loop_
 _symmetry_equiv_pos_site_id
 _symmetry_equiv_pos_as_xyz
  1  'x, y, z'
loop_
 _atom_site_type_symbol
 _atom_site_label
 _atom_site_symmetry_multiplicity
 _atom_site_fract_x
 _atom_site_fract_y
 _atom_site_fract_z
 _atom_site_occupancy
  Sm  Sm1  1  0.000000  0.000000  0.500000  1.0
  Sm  Sm2  1  0.000000  0.000000  0.000000  1.0
  Tl  Tl3  1  0.333361  0.666721  0.750000  1.0
  Tl  Tl4  1  0.666639  0.333279  0.250000  1.0
  Cd  Cd5  1  0.333365  0.666729  0.250000  1.0
  Cd  Cd6  1  0.666635  0.333271  0.750000  1.0
