# generated using pymatgen
data_SrSnHg
_symmetry_space_group_name_H-M   'P 1'
_cell_length_a   5.00603047
_cell_length_b   5.00589037
_cell_length_c   8.30871151
_cell_angle_alpha   90.00000000
_cell_angle_beta   90.00000000
_cell_angle_gamma   120.00092573
_symmetry_Int_Tables_number   1
_chemical_formula_structural   SrSnHg
_chemical_formula_sum   'Sr2 Sn2 Hg2'
_cell_volume   180.31633984
_cell_formula_units_Z   2
loop_
 _symmetry_equiv_pos_site_id
 _symmetry_equiv_pos_as_xyz
  1  'x, y, z'
loop_
 _atom_site_type_symbol
 _atom_site_label
 _atom_site_symmetry_multiplicity
 _atom_site_fract_x
 _atom_site_fract_y
 _atom_site_fract_z
 _atom_site_occupancy
  Sr  Sr1  1  0.000006  0.000013  0.750878  1.0
  Sr  Sr2  1  0.999994  0.999987  0.250878  1.0
  Sn  Sn3  1  0.666672  0.333344  0.968844  1.0
  Sn  Sn4  1  0.333328  0.666656  0.468844  1.0
  Hg  Hg5  1  0.666682  0.333364  0.550278  1.0
  Hg  Hg6  1  0.333318  0.666636  0.050278  1.0
