# generated using pymatgen
data_SrMg6Nb
_symmetry_space_group_name_H-M   'P 1'
_cell_length_a   6.48077993
_cell_length_b   9.15638518
_cell_length_c   4.59724127
_cell_angle_alpha   90.00000000
_cell_angle_beta   90.00000000
_cell_angle_gamma   134.94488313
_symmetry_Int_Tables_number   1
_chemical_formula_structural   SrMg6Nb
_chemical_formula_sum   'Sr1 Mg6 Nb1'
_cell_volume   193.08609701
_cell_formula_units_Z   1
loop_
 _symmetry_equiv_pos_site_id
 _symmetry_equiv_pos_as_xyz
  1  'x, y, z'
loop_
 _atom_site_type_symbol
 _atom_site_label
 _atom_site_symmetry_multiplicity
 _atom_site_fract_x
 _atom_site_fract_y
 _atom_site_fract_z
 _atom_site_occupancy
  Sr  Sr1  1  0.248335  0.374167  0.250000  1.0
  Mg  Mg2  1  0.751342  0.377128  0.250000  1.0
  Mg  Mg3  1  0.751342  0.874213  0.250000  1.0
  Mg  Mg4  1  0.250062  0.097409  0.750000  1.0
  Mg  Mg5  1  0.250062  0.652653  0.750000  1.0
  Mg  Mg6  1  0.697823  0.098912  0.750000  1.0
  Mg  Mg7  1  0.801159  0.650579  0.750000  1.0
  Nb  Nb8  1  0.249878  0.874938  0.250000  1.0
