# generated using pymatgen
data_AuCN
_symmetry_space_group_name_H-M   'P 1'
_cell_length_a   3.66157935
_cell_length_b   3.66157936
_cell_length_c   5.11345756
_cell_angle_alpha   90.00000000
_cell_angle_beta   90.00000000
_cell_angle_gamma   120.00000003
_symmetry_Int_Tables_number   1
_chemical_formula_structural   AuCN
_chemical_formula_sum   'Au1 C1 N1'
_cell_volume   59.37206973
_cell_formula_units_Z   1
loop_
 _symmetry_equiv_pos_site_id
 _symmetry_equiv_pos_as_xyz
  1  'x, y, z'
loop_
 _atom_site_type_symbol
 _atom_site_label
 _atom_site_symmetry_multiplicity
 _atom_site_fract_x
 _atom_site_fract_y
 _atom_site_fract_z
 _atom_site_occupancy
  Au  Au1  1  0.000000  0.000000  0.019144  1.0
  C  C2  1  0.000000  0.000000  0.399280  1.0
  N  N3  1  0.000000  0.000000  0.627577  1.0
