# generated using pymatgen
data_SrHgPb
_symmetry_space_group_name_H-M   'P 1'
_cell_length_a   5.12304725
_cell_length_b   5.12813950
_cell_length_c   8.29971864
_cell_angle_alpha   90.00000000
_cell_angle_beta   90.00000000
_cell_angle_gamma   119.96715713
_symmetry_Int_Tables_number   1
_chemical_formula_structural   SrHgPb
_chemical_formula_sum   'Sr2 Hg2 Pb2'
_cell_volume   188.89733334
_cell_formula_units_Z   2
loop_
 _symmetry_equiv_pos_site_id
 _symmetry_equiv_pos_as_xyz
  1  'x, y, z'
loop_
 _atom_site_type_symbol
 _atom_site_label
 _atom_site_symmetry_multiplicity
 _atom_site_fract_x
 _atom_site_fract_y
 _atom_site_fract_z
 _atom_site_occupancy
  Sr  Sr1  1  0.999834  0.999667  0.665362  1.0
  Sr  Sr2  1  0.000166  0.000333  0.165362  1.0
  Hg  Hg3  1  0.666467  0.332934  0.474356  1.0
  Hg  Hg4  1  0.333533  0.667066  0.974356  1.0
  Pb  Pb5  1  0.666578  0.333156  0.880282  1.0
  Pb  Pb6  1  0.333422  0.666844  0.380282  1.0
