# generated using pymatgen
data_TcB2
_symmetry_space_group_name_H-M   'P 1'
_cell_length_a   2.90282792
_cell_length_b   2.90277925
_cell_length_c   7.47261084
_cell_angle_alpha   90.00000000
_cell_angle_beta   90.00000000
_cell_angle_gamma   120.00055466
_symmetry_Int_Tables_number   1
_chemical_formula_structural   TcB2
_chemical_formula_sum   'Tc2 B4'
_cell_volume   54.53004693
_cell_formula_units_Z   2
loop_
 _symmetry_equiv_pos_site_id
 _symmetry_equiv_pos_as_xyz
  1  'x, y, z'
loop_
 _atom_site_type_symbol
 _atom_site_label
 _atom_site_symmetry_multiplicity
 _atom_site_fract_x
 _atom_site_fract_y
 _atom_site_fract_z
 _atom_site_occupancy
  Tc  Tc1  1  0.333322  0.666644  0.250000  1.0
  Tc  Tc2  1  0.666678  0.333356  0.750000  1.0
  B  B3  1  0.333320  0.666639  0.952223  1.0
  B  B4  1  0.666680  0.333361  0.047777  1.0
  B  B5  1  0.666680  0.333361  0.452223  1.0
  B  B6  1  0.333320  0.666639  0.547777  1.0
