# generated using pymatgen
data_SrZnSn
_symmetry_space_group_name_H-M   'P 1'
_cell_length_a   4.67083819
_cell_length_b   4.67020454
_cell_length_c   9.10970884
_cell_angle_alpha   90.00000000
_cell_angle_beta   90.00000000
_cell_angle_gamma   120.00448843
_symmetry_Int_Tables_number   1
_chemical_formula_structural   SrZnSn
_chemical_formula_sum   'Sr2 Zn2 Sn2'
_cell_volume   172.08626478
_cell_formula_units_Z   2
loop_
 _symmetry_equiv_pos_site_id
 _symmetry_equiv_pos_as_xyz
  1  'x, y, z'
loop_
 _atom_site_type_symbol
 _atom_site_label
 _atom_site_symmetry_multiplicity
 _atom_site_fract_x
 _atom_site_fract_y
 _atom_site_fract_z
 _atom_site_occupancy
  Sr  Sr1  1  0.000000  0.000000  0.500000  1.0
  Sr  Sr2  1  0.000000  0.000000  0.000000  1.0
  Zn  Zn3  1  0.333289  0.666577  0.750000  1.0
  Zn  Zn4  1  0.666711  0.333423  0.250000  1.0
  Sn  Sn5  1  0.333295  0.666591  0.250000  1.0
  Sn  Sn6  1  0.666705  0.333409  0.750000  1.0
