# generated using pymatgen
data_SrZnPb
_symmetry_space_group_name_H-M   'P 1'
_cell_length_a   4.79910680
_cell_length_b   4.79889461
_cell_length_c   9.08267833
_cell_angle_alpha   90.00000000
_cell_angle_beta   90.00000000
_cell_angle_gamma   120.00146266
_symmetry_Int_Tables_number   1
_chemical_formula_structural   SrZnPb
_chemical_formula_sum   'Sr2 Zn2 Pb2'
_cell_volume   181.15060608
_cell_formula_units_Z   2
loop_
 _symmetry_equiv_pos_site_id
 _symmetry_equiv_pos_as_xyz
  1  'x, y, z'
loop_
 _atom_site_type_symbol
 _atom_site_label
 _atom_site_symmetry_multiplicity
 _atom_site_fract_x
 _atom_site_fract_y
 _atom_site_fract_z
 _atom_site_occupancy
  Sr  Sr1  1  0.000000  0.000000  0.500000  1.0
  Sr  Sr2  1  0.000000  0.000000  0.000000  1.0
  Zn  Zn3  1  0.333320  0.666639  0.750000  1.0
  Zn  Zn4  1  0.666680  0.333361  0.250000  1.0
  Pb  Pb5  1  0.333327  0.666654  0.250000  1.0
  Pb  Pb6  1  0.666673  0.333346  0.750000  1.0
