# generated using pymatgen
data_ZrO2
_symmetry_space_group_name_H-M   'P 1'
_cell_length_a   8.17203845
_cell_length_b   8.17203845
_cell_length_c   5.09730473
_cell_angle_alpha   90.00000000
_cell_angle_beta   90.00000000
_cell_angle_gamma   90.00000000
_symmetry_Int_Tables_number   1
_chemical_formula_structural   ZrO2
_chemical_formula_sum   'Zr10 O20'
_cell_volume   340.40928729
_cell_formula_units_Z   10
loop_
 _symmetry_equiv_pos_site_id
 _symmetry_equiv_pos_as_xyz
  1  'x, y, z'
loop_
 _atom_site_type_symbol
 _atom_site_label
 _atom_site_symmetry_multiplicity
 _atom_site_fract_x
 _atom_site_fract_y
 _atom_site_fract_z
 _atom_site_occupancy
  Zr  Zr1  1  0.075613  0.883019  0.754110  1.0
  Zr  Zr2  1  0.116981  0.575613  0.245890  1.0
  Zr  Zr3  1  0.250000  0.250000  0.819158  1.0
  Zr  Zr4  1  0.383019  0.924387  0.245890  1.0
  Zr  Zr5  1  0.424387  0.616981  0.754110  1.0
  Zr  Zr6  1  0.575613  0.383019  0.245890  1.0
  Zr  Zr7  1  0.616981  0.075613  0.754110  1.0
  Zr  Zr8  1  0.750000  0.750000  0.180842  1.0
  Zr  Zr9  1  0.883019  0.424387  0.754110  1.0
  Zr  Zr10  1  0.924387  0.116981  0.245890  1.0
  O  O11  1  0.045351  0.140351  0.612830  1.0
  O  O12  1  0.043469  0.338822  0.075771  1.0
  O  O13  1  0.140351  0.454649  0.612830  1.0
  O  O14  1  0.161178  0.043469  0.075771  1.0
  O  O15  1  0.250000  0.750000  0.500000  1.0
  O  O16  1  0.250000  0.750000  0.000000  1.0
  O  O17  1  0.338822  0.456531  0.075771  1.0
  O  O18  1  0.359649  0.045351  0.612830  1.0
  O  O19  1  0.456531  0.161178  0.075771  1.0
  O  O20  1  0.454649  0.359649  0.612830  1.0
  O  O21  1  0.545351  0.640351  0.387170  1.0
  O  O22  1  0.543469  0.838822  0.924229  1.0
  O  O23  1  0.640351  0.954649  0.387170  1.0
  O  O24  1  0.661178  0.543469  0.924229  1.0
  O  O25  1  0.750000  0.250000  0.500000  1.0
  O  O26  1  0.750000  0.250000  0.000000  1.0
  O  O27  1  0.838822  0.956531  0.924229  1.0
  O  O28  1  0.859649  0.545351  0.387170  1.0
  O  O29  1  0.956531  0.661178  0.924229  1.0
  O  O30  1  0.954649  0.859649  0.387170  1.0
