# generated using pymatgen
data_Na2GeO3
_symmetry_space_group_name_H-M   'P 1'
_cell_length_a   4.99944771
_cell_length_b   6.31393970
_cell_length_c   6.32424871
_cell_angle_alpha   119.94609210
_cell_angle_beta   90.00000000
_cell_angle_gamma   90.00000000
_symmetry_Int_Tables_number   1
_chemical_formula_structural   Na2GeO3
_chemical_formula_sum   'Na4 Ge2 O6'
_cell_volume   172.98071604
_cell_formula_units_Z   2
loop_
 _symmetry_equiv_pos_site_id
 _symmetry_equiv_pos_as_xyz
  1  'x, y, z'
loop_
 _atom_site_type_symbol
 _atom_site_label
 _atom_site_symmetry_multiplicity
 _atom_site_fract_x
 _atom_site_fract_y
 _atom_site_fract_z
 _atom_site_occupancy
  Na  Na1  1  0.501832  0.506455  0.334114  1.0
  Na  Na2  1  0.501832  0.172340  0.665886  1.0
  Na  Na3  1  0.001832  0.493545  0.665886  1.0
  Na  Na4  1  0.001832  0.827660  0.334114  1.0
  Ge  Ge5  1  0.534344  0.836153  0.000000  1.0
  Ge  Ge6  1  0.034344  0.163847  0.000000  1.0
  O  O7  1  0.396926  0.104550  0.000000  1.0
  O  O8  1  0.896926  0.895450  0.000000  1.0
  O  O9  1  0.474833  0.567587  0.726764  1.0
  O  O10  1  0.974833  0.432413  0.273236  1.0
  O  O11  1  0.474833  0.840823  0.273236  1.0
  O  O12  1  0.974833  0.159177  0.726764  1.0
