# generated using pymatgen
data_Au2O3
_symmetry_space_group_name_H-M   'P 1'
_cell_length_a   4.05580926
_cell_length_b   5.70378860
_cell_length_c   6.83063593
_cell_angle_alpha   83.94097305
_cell_angle_beta   72.72947193
_cell_angle_gamma   69.17367553
_symmetry_Int_Tables_number   1
_chemical_formula_structural   Au2O3
_chemical_formula_sum   'Au4 O6'
_cell_volume   141.03307029
_cell_formula_units_Z   2
loop_
 _symmetry_equiv_pos_site_id
 _symmetry_equiv_pos_as_xyz
  1  'x, y, z'
loop_
 _atom_site_type_symbol
 _atom_site_label
 _atom_site_symmetry_multiplicity
 _atom_site_fract_x
 _atom_site_fract_y
 _atom_site_fract_z
 _atom_site_occupancy
  Au  Au1  1  0.933767  0.232114  0.408429  1.0
  Au  Au2  1  0.574310  0.767886  0.591571  1.0
  Au  Au3  1  0.415881  0.267886  0.908429  1.0
  Au  Au4  1  0.592196  0.732114  0.091571  1.0
  O  O5  1  0.445446  0.500000  0.500000  1.0
  O  O6  1  0.195446  0.000000  0.000000  1.0
  O  O7  1  0.770213  0.034666  0.664286  1.0
  O  O8  1  0.469164  0.965334  0.335714  1.0
  O  O9  1  0.684499  0.534666  0.835714  1.0
  O  O10  1  0.054878  0.465334  0.164286  1.0
