# generated using pymatgen
data_SmGa2Co
_symmetry_space_group_name_H-M   'P 1'
_cell_length_a   9.13276679
_cell_length_b   9.13276679
_cell_length_c   4.08913825
_cell_angle_alpha   90.00000000
_cell_angle_beta   90.00000000
_cell_angle_gamma   26.11378326
_symmetry_Int_Tables_number   1
_chemical_formula_structural   SmGa2Co
_chemical_formula_sum   'Sm2 Ga4 Co2'
_cell_volume   150.12131372
_cell_formula_units_Z   2
loop_
 _symmetry_equiv_pos_site_id
 _symmetry_equiv_pos_as_xyz
  1  'x, y, z'
loop_
 _atom_site_type_symbol
 _atom_site_label
 _atom_site_symmetry_multiplicity
 _atom_site_fract_x
 _atom_site_fract_y
 _atom_site_fract_z
 _atom_site_occupancy
  Sm  Sm1  1  0.857495  0.857495  0.000000  1.0
  Sm  Sm2  1  0.142505  0.142505  0.000000  1.0
  Ga  Ga3  1  0.000000  0.000000  0.500000  1.0
  Ga  Ga4  1  0.500000  0.500000  0.000000  1.0
  Ga  Ga5  1  0.708051  0.708051  0.500000  1.0
  Ga  Ga6  1  0.291949  0.291949  0.500000  1.0
  Co  Co7  1  0.573318  0.573318  0.500000  1.0
  Co  Co8  1  0.426681  0.426681  0.500000  1.0
