# generated using pymatgen
data_EuZrO3
_symmetry_space_group_name_H-M   'P 1'
_cell_length_a   4.19825443
_cell_length_b   4.19686573
_cell_length_c   4.19687990
_cell_angle_alpha   90.00005092
_cell_angle_beta   89.99995796
_cell_angle_gamma   89.99991278
_symmetry_Int_Tables_number   1
_chemical_formula_structural   EuZrO3
_chemical_formula_sum   'Eu1 Zr1 O3'
_cell_volume   73.94696797
_cell_formula_units_Z   1
loop_
 _symmetry_equiv_pos_site_id
 _symmetry_equiv_pos_as_xyz
  1  'x, y, z'
loop_
 _atom_site_type_symbol
 _atom_site_label
 _atom_site_symmetry_multiplicity
 _atom_site_fract_x
 _atom_site_fract_y
 _atom_site_fract_z
 _atom_site_occupancy
  Eu  Eu1  1  0.000000  0.999999  0.999999  1.0
  Zr  Zr2  1  0.500000  0.500000  0.500000  1.0
  O  O3  1  0.000000  0.500000  0.500000  1.0
  O  O4  1  0.500000  0.000001  0.500000  1.0
  O  O5  1  0.500000  0.500000  0.000001  1.0
