# generated using pymatgen
data_Li10Ge(PS6)2
_symmetry_space_group_name_H-M   'P 1'
_cell_length_a   8.78764647
_cell_length_b   8.78764647
_cell_length_c   12.65754627
_cell_angle_alpha   90.00000000
_cell_angle_beta   90.00000000
_cell_angle_gamma   90.00000000
_symmetry_Int_Tables_number   1
_chemical_formula_structural   Li10Ge(PS6)2
_chemical_formula_sum   'Li20 Ge2 P4 S24'
_cell_volume   977.45028417
_cell_formula_units_Z   2
loop_
 _symmetry_equiv_pos_site_id
 _symmetry_equiv_pos_as_xyz
  1  'x, y, z'
loop_
 _atom_site_type_symbol
 _atom_site_label
 _atom_site_symmetry_multiplicity
 _atom_site_fract_x
 _atom_site_fract_y
 _atom_site_fract_z
 _atom_site_occupancy
  Li  Li1  1  0.228698  0.772950  0.294563  1.0
  Li  Li2  1  0.771302  0.227050  0.294563  1.0
  Li  Li3  1  0.272950  0.271302  0.794563  1.0
  Li  Li4  1  0.727050  0.728698  0.794563  1.0
  Li  Li5  1  0.228698  0.227050  0.294563  1.0
  Li  Li6  1  0.771302  0.772950  0.294563  1.0
  Li  Li7  1  0.272950  0.728698  0.794563  1.0
  Li  Li8  1  0.727050  0.271302  0.794563  1.0
  Li  Li9  1  0.000000  0.500000  0.939730  1.0
  Li  Li10  1  0.000000  0.500000  0.439730  1.0
  Li  Li11  1  0.500000  0.000000  0.548020  1.0
  Li  Li12  1  0.500000  0.000000  0.048020  1.0
  Li  Li13  1  0.256318  0.224772  0.036663  1.0
  Li  Li14  1  0.743682  0.775228  0.036663  1.0
  Li  Li15  1  0.275228  0.756318  0.536663  1.0
  Li  Li16  1  0.724772  0.243682  0.536663  1.0
  Li  Li17  1  0.275228  0.243682  0.536663  1.0
  Li  Li18  1  0.724772  0.756318  0.536663  1.0
  Li  Li19  1  0.256318  0.775228  0.036663  1.0
  Li  Li20  1  0.743682  0.224772  0.036663  1.0
  Ge  Ge21  1  0.500000  0.000000  0.801028  1.0
  Ge  Ge22  1  0.500000  0.000000  0.301028  1.0
  P  P23  1  0.000000  0.500000  0.686051  1.0
  P  P24  1  0.000000  0.500000  0.186051  1.0
  P  P25  1  0.000000  0.000000  0.504073  1.0
  P  P26  1  0.500000  0.500000  0.004073  1.0
  S  S27  1  0.000000  0.194431  0.412071  1.0
  S  S28  1  0.000000  0.805569  0.412071  1.0
  S  S29  1  0.305569  0.500000  0.912071  1.0
  S  S30  1  0.694431  0.500000  0.912071  1.0
  S  S31  1  0.500000  0.689848  0.097057  1.0
  S  S32  1  0.500000  0.310152  0.097057  1.0
  S  S33  1  0.189848  0.000000  0.597057  1.0
  S  S34  1  0.810152  0.000000  0.597057  1.0
  S  S35  1  0.000000  0.304708  0.094096  1.0
  S  S36  1  0.000000  0.695292  0.094096  1.0
  S  S37  1  0.195292  0.500000  0.594096  1.0
  S  S38  1  0.804708  0.500000  0.594096  1.0
  S  S39  1  0.500000  0.790002  0.403242  1.0
  S  S40  1  0.500000  0.209998  0.403242  1.0
  S  S41  1  0.290002  0.000000  0.903242  1.0
  S  S42  1  0.709998  0.000000  0.903242  1.0
  S  S43  1  0.000000  0.691950  0.777069  1.0
  S  S44  1  0.000000  0.308050  0.777069  1.0
  S  S45  1  0.808050  0.500000  0.277069  1.0
  S  S46  1  0.191950  0.500000  0.277069  1.0
  S  S47  1  0.500000  0.207378  0.698166  1.0
  S  S48  1  0.500000  0.792622  0.698166  1.0
  S  S49  1  0.707378  0.000000  0.198166  1.0
  S  S50  1  0.292622  0.000000  0.198166  1.0
