# generated using pymatgen
data_ZrH
_symmetry_space_group_name_H-M   'P 1'
_cell_length_a   4.59141167
_cell_length_b   4.59140124
_cell_length_c   5.01271464
_cell_angle_alpha   89.99969595
_cell_angle_beta   89.99913503
_cell_angle_gamma   90.00080564
_symmetry_Int_Tables_number   1
_chemical_formula_structural   ZrH
_chemical_formula_sum   'Zr4 H4'
_cell_volume   105.67310365
_cell_formula_units_Z   4
loop_
 _symmetry_equiv_pos_site_id
 _symmetry_equiv_pos_as_xyz
  1  'x, y, z'
loop_
 _atom_site_type_symbol
 _atom_site_label
 _atom_site_symmetry_multiplicity
 _atom_site_fract_x
 _atom_site_fract_y
 _atom_site_fract_z
 _atom_site_occupancy
  Zr  Zr1  1  0.749985  0.250005  0.749999  1.0
  Zr  Zr2  1  0.250009  0.749997  0.750005  1.0
  Zr  Zr3  1  0.250010  0.250006  0.249998  1.0
  Zr  Zr4  1  0.749999  0.749991  0.250001  1.0
  H  H5  1  0.499998  0.500004  0.500002  1.0
  H  H6  1  0.000002  0.000001  0.999999  1.0
  H  H7  1  0.500000  0.499998  0.999999  1.0
  H  H8  1  0.999997  0.999998  0.499996  1.0
