# generated using pymatgen
data_Na6Ti2O7
_symmetry_space_group_name_H-M   'P 1'
_cell_length_a   10.11369244
_cell_length_b   5.40604879
_cell_length_c   8.92173347
_cell_angle_alpha   90.00000000
_cell_angle_beta   114.33683125
_cell_angle_gamma   90.00000000
_symmetry_Int_Tables_number   1
_chemical_formula_structural   Na6Ti2O7
_chemical_formula_sum   'Na12 Ti4 O14'
_cell_volume   444.45047332
_cell_formula_units_Z   2
loop_
 _symmetry_equiv_pos_site_id
 _symmetry_equiv_pos_as_xyz
  1  'x, y, z'
loop_
 _atom_site_type_symbol
 _atom_site_label
 _atom_site_symmetry_multiplicity
 _atom_site_fract_x
 _atom_site_fract_y
 _atom_site_fract_z
 _atom_site_occupancy
  Na  Na1  1  0.119904  0.775136  0.785896  1.0
  Na  Na2  1  0.134602  0.221117  0.563030  1.0
  Na  Na3  1  0.154484  0.196645  0.087883  1.0
  Na  Na4  1  0.365398  0.221117  0.936970  1.0
  Na  Na5  1  0.380096  0.775136  0.714104  1.0
  Na  Na6  1  0.345516  0.196645  0.412117  1.0
  Na  Na7  1  0.654484  0.803355  0.587883  1.0
  Na  Na8  1  0.619904  0.224864  0.285896  1.0
  Na  Na9  1  0.634602  0.778883  0.063030  1.0
  Na  Na10  1  0.845516  0.803355  0.912117  1.0
  Na  Na11  1  0.865398  0.778883  0.436970  1.0
  Na  Na12  1  0.880096  0.224864  0.214104  1.0
  Ti  Ti13  1  0.104457  0.694404  0.316261  1.0
  Ti  Ti14  1  0.395543  0.694404  0.183739  1.0
  Ti  Ti15  1  0.604457  0.305596  0.816261  1.0
  Ti  Ti16  1  0.895543  0.305596  0.683739  1.0
  O  O17  1  0.082647  0.210397  0.809791  1.0
  O  O18  1  0.140444  0.774450  0.527324  1.0
  O  O19  1  0.111949  0.361768  0.303459  1.0
  O  O20  1  0.359556  0.774450  0.972676  1.0
  O  O21  1  0.250000  0.829479  0.250000  1.0
  O  O22  1  0.417353  0.210397  0.690209  1.0
  O  O23  1  0.388051  0.361768  0.196541  1.0
  O  O24  1  0.611949  0.638232  0.803459  1.0
  O  O25  1  0.582647  0.789603  0.309791  1.0
  O  O26  1  0.750000  0.170521  0.750000  1.0
  O  O27  1  0.640444  0.225550  0.027324  1.0
  O  O28  1  0.888051  0.638232  0.696541  1.0
  O  O29  1  0.859556  0.225550  0.472676  1.0
  O  O30  1  0.917353  0.789603  0.190209  1.0
