# generated using pymatgen
data_MnGaNi2
_symmetry_space_group_name_H-M   'P 1'
_cell_length_a   3.83710517
_cell_length_b   3.83710472
_cell_length_c   4.27043847
_cell_angle_alpha   116.69644690
_cell_angle_beta   116.69644343
_cell_angle_gamma   89.99999737
_symmetry_Int_Tables_number   1
_chemical_formula_structural   MnGaNi2
_chemical_formula_sum   'Mn1 Ga1 Ni2'
_cell_volume   48.55356832
_cell_formula_units_Z   1
loop_
 _symmetry_equiv_pos_site_id
 _symmetry_equiv_pos_as_xyz
  1  'x, y, z'
loop_
 _atom_site_type_symbol
 _atom_site_label
 _atom_site_symmetry_multiplicity
 _atom_site_fract_x
 _atom_site_fract_y
 _atom_site_fract_z
 _atom_site_occupancy
  Mn  Mn1  1  0.500000  0.500000  0.000000  1.0
  Ga  Ga2  1  0.000000  0.000000  0.000000  1.0
  Ni  Ni3  1  0.250000  0.750000  0.500000  1.0
  Ni  Ni4  1  0.750000  0.250000  0.500000  1.0
