# generated using pymatgen
data_Mn3GaN
_symmetry_space_group_name_H-M   'P 1'
_cell_length_a   3.78104567
_cell_length_b   3.78128757
_cell_length_c   3.78185856
_cell_angle_alpha   90.03147206
_cell_angle_beta   89.99037201
_cell_angle_gamma   90.07021246
_symmetry_Int_Tables_number   1
_chemical_formula_structural   Mn3GaN
_chemical_formula_sum   'Mn3 Ga1 N1'
_cell_volume   54.07001809
_cell_formula_units_Z   1
loop_
 _symmetry_equiv_pos_site_id
 _symmetry_equiv_pos_as_xyz
  1  'x, y, z'
loop_
 _atom_site_type_symbol
 _atom_site_label
 _atom_site_symmetry_multiplicity
 _atom_site_fract_x
 _atom_site_fract_y
 _atom_site_fract_z
 _atom_site_occupancy
  Mn  Mn1  1  0.500027  0.499935  0.000013  1.0
  Mn  Mn2  1  0.499865  0.999992  0.499998  1.0
  Mn  Mn3  1  0.000050  0.500212  0.500007  1.0
  Ga  Ga4  1  0.000015  0.999918  0.999970  1.0
  N  N5  1  0.500043  0.499943  0.500011  1.0
