# generated using pymatgen
data_LiCuO2
_symmetry_space_group_name_H-M   'P 1'
_cell_length_a   2.96837857
_cell_length_b   2.96846564
_cell_length_c   5.09045012
_cell_angle_alpha   89.99889201
_cell_angle_beta   90.00152225
_cell_angle_gamma   119.99923259
_symmetry_Int_Tables_number   1
_chemical_formula_structural   LiCuO2
_chemical_formula_sum   'Li1 Cu1 O2'
_cell_volume   38.84556925
_cell_formula_units_Z   1
loop_
 _symmetry_equiv_pos_site_id
 _symmetry_equiv_pos_as_xyz
  1  'x, y, z'
loop_
 _atom_site_type_symbol
 _atom_site_label
 _atom_site_symmetry_multiplicity
 _atom_site_fract_x
 _atom_site_fract_y
 _atom_site_fract_z
 _atom_site_occupancy
  Li  Li1  1  0.666614  0.333332  0.596475  1.0
  Cu  Cu2  1  0.999973  0.999993  0.027457  1.0
  O  O3  1  0.333279  0.666660  0.799763  1.0
  O  O4  1  0.666633  0.333315  0.225305  1.0
