# generated using pymatgen
data_MnTePd
_symmetry_space_group_name_H-M   'P 1'
_cell_length_a   4.49605759
_cell_length_b   4.49607342
_cell_length_c   4.49607229
_cell_angle_alpha   60.00075793
_cell_angle_beta   60.00039184
_cell_angle_gamma   60.00054685
_symmetry_Int_Tables_number   1
_chemical_formula_structural   MnTePd
_chemical_formula_sum   'Mn1 Te1 Pd1'
_cell_volume   64.26716111
_cell_formula_units_Z   1
loop_
 _symmetry_equiv_pos_site_id
 _symmetry_equiv_pos_as_xyz
  1  'x, y, z'
loop_
 _atom_site_type_symbol
 _atom_site_label
 _atom_site_symmetry_multiplicity
 _atom_site_fract_x
 _atom_site_fract_y
 _atom_site_fract_z
 _atom_site_occupancy
  Mn  Mn1  1  0.500001  0.500009  0.500008  1.0
  Te  Te2  1  0.250001  0.250001  0.249994  1.0
  Pd  Pd3  1  0.999998  0.999991  0.999998  1.0
