# generated using pymatgen
data_VO
_symmetry_space_group_name_H-M   'P 1'
_cell_length_a   3.20613631
_cell_length_b   5.13085476
_cell_length_c   3.20613612
_cell_angle_alpha   108.20614553
_cell_angle_beta   60.00000602
_cell_angle_gamma   108.20614105
_symmetry_Int_Tables_number   1
_chemical_formula_structural   VO
_chemical_formula_sum   'V2 O2'
_cell_volume   42.59955772
_cell_formula_units_Z   2
loop_
 _symmetry_equiv_pos_site_id
 _symmetry_equiv_pos_as_xyz
  1  'x, y, z'
loop_
 _atom_site_type_symbol
 _atom_site_label
 _atom_site_symmetry_multiplicity
 _atom_site_fract_x
 _atom_site_fract_y
 _atom_site_fract_z
 _atom_site_occupancy
  V  V1  1  0.000000  0.000000  0.000000  1.0
  V  V2  1  0.500000  0.500000  0.500000  1.0
  O  O3  1  0.749999  0.249996  0.749999  1.0
  O  O4  1  0.250001  0.750004  0.250001  1.0
