# generated using pymatgen
data_NaVO2
_symmetry_space_group_name_H-M   'P 1'
_cell_length_a   3.01650809
_cell_length_b   3.06246481
_cell_length_c   5.62012412
_cell_angle_alpha   89.20187429
_cell_angle_beta   90.00000000
_cell_angle_gamma   119.50481984
_symmetry_Int_Tables_number   1
_chemical_formula_structural   NaVO2
_chemical_formula_sum   'Na1 V1 O2'
_cell_volume   45.17955825
_cell_formula_units_Z   1
loop_
 _symmetry_equiv_pos_site_id
 _symmetry_equiv_pos_as_xyz
  1  'x, y, z'
loop_
 _atom_site_type_symbol
 _atom_site_label
 _atom_site_symmetry_multiplicity
 _atom_site_fract_x
 _atom_site_fract_y
 _atom_site_fract_z
 _atom_site_occupancy
  Na  Na1  1  0.000001  0.000000  0.500000  1.0
  V  V2  1  0.999995  0.000000  0.000000  1.0
  O  O3  1  0.334589  0.669182  0.197494  1.0
  O  O4  1  0.665405  0.330818  0.802506  1.0
