# generated using pymatgen
data_FeNiN
_symmetry_space_group_name_H-M   'P 1'
_cell_length_a   2.80053242
_cell_length_b   2.80053898
_cell_length_c   3.73407096
_cell_angle_alpha   89.99986344
_cell_angle_beta   89.99996814
_cell_angle_gamma   89.99997811
_symmetry_Int_Tables_number   1
_chemical_formula_structural   FeNiN
_chemical_formula_sum   'Fe1 Ni1 N1'
_cell_volume   29.28631931
_cell_formula_units_Z   1
loop_
 _symmetry_equiv_pos_site_id
 _symmetry_equiv_pos_as_xyz
  1  'x, y, z'
loop_
 _atom_site_type_symbol
 _atom_site_label
 _atom_site_symmetry_multiplicity
 _atom_site_fract_x
 _atom_site_fract_y
 _atom_site_fract_z
 _atom_site_occupancy
  Fe  Fe1  1  0.000002  0.000000  0.000001  1.0
  Ni  Ni2  1  0.499998  0.500000  0.500000  1.0
  N  N3  1  0.500001  0.500000  0.999999  1.0
