# generated using pymatgen
data_YbAlO3
_symmetry_space_group_name_H-M   'P 1'
_cell_length_a   6.42318003
_cell_length_b   5.24577122
_cell_length_c   5.24577135
_cell_angle_alpha   60.03192196
_cell_angle_beta   35.28394450
_cell_angle_gamma   35.28393316
_symmetry_Int_Tables_number   1
_chemical_formula_structural   YbAlO3
_chemical_formula_sum   'Yb1 Al1 O3'
_cell_volume   51.07367919
_cell_formula_units_Z   1
loop_
 _symmetry_equiv_pos_site_id
 _symmetry_equiv_pos_as_xyz
  1  'x, y, z'
loop_
 _atom_site_type_symbol
 _atom_site_label
 _atom_site_symmetry_multiplicity
 _atom_site_fract_x
 _atom_site_fract_y
 _atom_site_fract_z
 _atom_site_occupancy
  Yb  Yb1  1  0.500000  0.000000  0.000000  1.0
  Al  Al2  1  0.000000  0.000000  0.000000  1.0
  O  O3  1  0.500000  0.000000  0.500000  1.0
  O  O4  1  0.500000  0.500000  0.000000  1.0
  O  O5  1  0.500000  0.500000  0.500000  1.0
