# generated using pymatgen
data_ErZnGa
_symmetry_space_group_name_H-M   'P 1'
_cell_length_a   4.40716286
_cell_length_b   4.40705263
_cell_length_c   7.07804308
_cell_angle_alpha   90.00000000
_cell_angle_beta   90.00000000
_cell_angle_gamma   120.00082741
_symmetry_Int_Tables_number   1
_chemical_formula_structural   ErZnGa
_chemical_formula_sum   'Er2 Zn2 Ga2'
_cell_volume   119.05497517
_cell_formula_units_Z   2
loop_
 _symmetry_equiv_pos_site_id
 _symmetry_equiv_pos_as_xyz
  1  'x, y, z'
loop_
 _atom_site_type_symbol
 _atom_site_label
 _atom_site_symmetry_multiplicity
 _atom_site_fract_x
 _atom_site_fract_y
 _atom_site_fract_z
 _atom_site_occupancy
  Er  Er1  1  0.000000  0.000000  0.500000  1.0
  Er  Er2  1  0.000000  0.000000  0.000000  1.0
  Zn  Zn3  1  0.333296  0.666593  0.750000  1.0
  Zn  Zn4  1  0.666704  0.333407  0.250000  1.0
  Ga  Ga5  1  0.333295  0.666589  0.250000  1.0
  Ga  Ga6  1  0.666705  0.333411  0.750000  1.0
