# generated using pymatgen
data_Rb2NaVF6
_symmetry_space_group_name_H-M   'P 1'
_cell_length_a   6.10366180
_cell_length_b   6.10366225
_cell_length_c   6.10366157
_cell_angle_alpha   59.99999822
_cell_angle_beta   59.99999577
_cell_angle_gamma   59.99999960
_symmetry_Int_Tables_number   1
_chemical_formula_structural   Rb2NaVF6
_chemical_formula_sum   'Rb2 Na1 V1 F6'
_cell_volume   160.78901758
_cell_formula_units_Z   1
loop_
 _symmetry_equiv_pos_site_id
 _symmetry_equiv_pos_as_xyz
  1  'x, y, z'
loop_
 _atom_site_type_symbol
 _atom_site_label
 _atom_site_symmetry_multiplicity
 _atom_site_fract_x
 _atom_site_fract_y
 _atom_site_fract_z
 _atom_site_occupancy
  Rb  Rb1  1  0.750000  0.750000  0.750000  1.0
  Rb  Rb2  1  0.250000  0.250000  0.250000  1.0
  Na  Na3  1  0.500000  0.500000  0.500000  1.0
  V  V4  1  0.000000  0.000000  0.000000  1.0
  F  F5  1  0.230099  0.769901  0.769901  1.0
  F  F6  1  0.230099  0.769901  0.230099  1.0
  F  F7  1  0.769901  0.230099  0.769901  1.0
  F  F8  1  0.230099  0.230099  0.769901  1.0
  F  F9  1  0.769901  0.230099  0.230099  1.0
  F  F10  1  0.769901  0.769901  0.230099  1.0
