# generated using pymatgen
data_Rb2CoF6
_symmetry_space_group_name_H-M   'P 1'
_cell_length_a   6.17069588
_cell_length_b   6.17069641
_cell_length_c   6.17069644
_cell_angle_alpha   59.99999982
_cell_angle_beta   59.99999700
_cell_angle_gamma   60.00000082
_symmetry_Int_Tables_number   1
_chemical_formula_structural   Rb2CoF6
_chemical_formula_sum   'Rb2 Co1 F6'
_cell_volume   166.14508564
_cell_formula_units_Z   1
loop_
 _symmetry_equiv_pos_site_id
 _symmetry_equiv_pos_as_xyz
  1  'x, y, z'
loop_
 _atom_site_type_symbol
 _atom_site_label
 _atom_site_symmetry_multiplicity
 _atom_site_fract_x
 _atom_site_fract_y
 _atom_site_fract_z
 _atom_site_occupancy
  Rb  Rb1  1  0.750000  0.750000  0.750000  1.0
  Rb  Rb2  1  0.250000  0.250000  0.250000  1.0
  Co  Co3  1  0.000000  0.000000  0.000000  1.0
  F  F4  1  0.214301  0.785699  0.785699  1.0
  F  F5  1  0.214301  0.785699  0.214301  1.0
  F  F6  1  0.785699  0.214301  0.785699  1.0
  F  F7  1  0.785699  0.214301  0.214301  1.0
  F  F8  1  0.785699  0.785699  0.214301  1.0
  F  F9  1  0.214301  0.214301  0.785699  1.0
