# generated using pymatgen
data_DyNi2B2C
_symmetry_space_group_name_H-M   'P 1'
_cell_length_a   3.54859782
_cell_length_b   3.54859782
_cell_length_c   5.74460943
_cell_angle_alpha   107.99073983
_cell_angle_beta   107.99073984
_cell_angle_gamma   90.00000006
_symmetry_Int_Tables_number   1
_chemical_formula_structural   DyNi2B2C
_chemical_formula_sum   'Dy1 Ni2 B2 C1'
_cell_volume   65.07345582
_cell_formula_units_Z   1
loop_
 _symmetry_equiv_pos_site_id
 _symmetry_equiv_pos_as_xyz
  1  'x, y, z'
loop_
 _atom_site_type_symbol
 _atom_site_label
 _atom_site_symmetry_multiplicity
 _atom_site_fract_x
 _atom_site_fract_y
 _atom_site_fract_z
 _atom_site_occupancy
  Dy  Dy1  1  0.000000  0.000000  0.000000  1.0
  Ni  Ni2  1  0.250000  0.750000  0.500000  1.0
  Ni  Ni3  1  0.750000  0.250000  0.500000  1.0
  B  B4  1  0.355731  0.355731  0.711462  1.0
  B  B5  1  0.644269  0.644269  0.288538  1.0
  C  C6  1  0.500000  0.500000  0.000000  1.0
