# generated using pymatgen
data_Hf2Ag
_symmetry_space_group_name_H-M   'P 1'
_cell_length_a   3.21983056
_cell_length_b   3.21983056
_cell_length_c   6.44206696
_cell_angle_alpha   104.47198744
_cell_angle_beta   104.47198740
_cell_angle_gamma   89.99999994
_symmetry_Int_Tables_number   1
_chemical_formula_structural   Hf2Ag
_chemical_formula_sum   'Hf2 Ag1'
_cell_volume   62.47675462
_cell_formula_units_Z   1
loop_
 _symmetry_equiv_pos_site_id
 _symmetry_equiv_pos_as_xyz
  1  'x, y, z'
loop_
 _atom_site_type_symbol
 _atom_site_label
 _atom_site_symmetry_multiplicity
 _atom_site_fract_x
 _atom_site_fract_y
 _atom_site_fract_z
 _atom_site_occupancy
  Hf  Hf1  1  0.334468  0.334468  0.668936  1.0
  Hf  Hf2  1  0.665532  0.665532  0.331064  1.0
  Ag  Ag3  1  0.000000  0.000000  0.000000  1.0
