# generated using pymatgen
data_Zn7Mo
_symmetry_space_group_name_H-M   'P 1'
_cell_length_a   5.52899695
_cell_length_b   5.52899727
_cell_length_c   5.52899944
_cell_angle_alpha   59.99995947
_cell_angle_beta   59.99993735
_cell_angle_gamma   59.99993853
_symmetry_Int_Tables_number   1
_chemical_formula_structural   Zn7Mo
_chemical_formula_sum   'Zn7 Mo1'
_cell_volume   119.51536264
_cell_formula_units_Z   1
loop_
 _symmetry_equiv_pos_site_id
 _symmetry_equiv_pos_as_xyz
  1  'x, y, z'
loop_
 _atom_site_type_symbol
 _atom_site_label
 _atom_site_symmetry_multiplicity
 _atom_site_fract_x
 _atom_site_fract_y
 _atom_site_fract_z
 _atom_site_occupancy
  Zn  Zn1  1  0.500000  0.000000  0.000000  1.0
  Zn  Zn2  1  0.500000  0.500000  0.000000  1.0
  Zn  Zn3  1  0.500000  0.000000  0.500000  1.0
  Zn  Zn4  1  0.000000  0.500000  0.500000  1.0
  Zn  Zn5  1  0.000000  0.000000  0.500000  1.0
  Zn  Zn6  1  0.000000  0.500000  0.000000  1.0
  Zn  Zn7  1  0.500000  0.500000  0.500000  1.0
  Mo  Mo8  1  0.000000  0.000000  0.000000  1.0
