# generated using pymatgen
data_Ti2BRh6
_symmetry_space_group_name_H-M   'P 1'
_cell_length_a   5.59671266
_cell_length_b   5.59671250
_cell_length_c   5.59671349
_cell_angle_alpha   60.00000037
_cell_angle_beta   60.00000129
_cell_angle_gamma   59.99999984
_symmetry_Int_Tables_number   1
_chemical_formula_structural   Ti2BRh6
_chemical_formula_sum   'Ti2 B1 Rh6'
_cell_volume   123.96072008
_cell_formula_units_Z   1
loop_
 _symmetry_equiv_pos_site_id
 _symmetry_equiv_pos_as_xyz
  1  'x, y, z'
loop_
 _atom_site_type_symbol
 _atom_site_label
 _atom_site_symmetry_multiplicity
 _atom_site_fract_x
 _atom_site_fract_y
 _atom_site_fract_z
 _atom_site_occupancy
  Ti  Ti1  1  0.250000  0.250000  0.250000  1.0
  Ti  Ti2  1  0.750000  0.750000  0.750000  1.0
  B  B3  1  0.500000  0.500000  0.500000  1.0
  Rh  Rh4  1  0.241881  0.758119  0.758119  1.0
  Rh  Rh5  1  0.241881  0.241881  0.758119  1.0
  Rh  Rh6  1  0.758119  0.241881  0.758119  1.0
  Rh  Rh7  1  0.758119  0.241881  0.241881  1.0
  Rh  Rh8  1  0.241881  0.758119  0.241881  1.0
  Rh  Rh9  1  0.758119  0.758119  0.241881  1.0
