# generated using pymatgen
data_NaTi2O3
_symmetry_space_group_name_H-M   'P 1'
_cell_length_a   3.05776209
_cell_length_b   3.05749842
_cell_length_c   7.80134154
_cell_angle_alpha   89.99922050
_cell_angle_beta   90.00000000
_cell_angle_gamma   120.00286344
_symmetry_Int_Tables_number   1
_chemical_formula_structural   NaTi2O3
_chemical_formula_sum   'Na1 Ti2 O3'
_cell_volume   63.16221108
_cell_formula_units_Z   1
loop_
 _symmetry_equiv_pos_site_id
 _symmetry_equiv_pos_as_xyz
  1  'x, y, z'
loop_
 _atom_site_type_symbol
 _atom_site_label
 _atom_site_symmetry_multiplicity
 _atom_site_fract_x
 _atom_site_fract_y
 _atom_site_fract_z
 _atom_site_occupancy
  Na  Na1  1  0.999998  0.000000  0.500000  1.0
  Ti  Ti2  1  0.333385  0.666775  0.148125  1.0
  Ti  Ti3  1  0.666610  0.333225  0.851875  1.0
  O  O4  1  0.333340  0.666685  0.705632  1.0
  O  O5  1  0.999993  0.000000  0.000000  1.0
  O  O6  1  0.666655  0.333315  0.294368  1.0
