# generated using pymatgen
data_Ba3NaN
_symmetry_space_group_name_H-M   'P 1'
_cell_length_a   8.52041938
_cell_length_b   8.52041939
_cell_length_c   7.00402578
_cell_angle_alpha   90.00000000
_cell_angle_beta   90.00000000
_cell_angle_gamma   119.99999998
_symmetry_Int_Tables_number   1
_chemical_formula_structural   Ba3NaN
_chemical_formula_sum   'Ba6 Na2 N2'
_cell_volume   440.35234282
_cell_formula_units_Z   2
loop_
 _symmetry_equiv_pos_site_id
 _symmetry_equiv_pos_as_xyz
  1  'x, y, z'
loop_
 _atom_site_type_symbol
 _atom_site_label
 _atom_site_symmetry_multiplicity
 _atom_site_fract_x
 _atom_site_fract_y
 _atom_site_fract_z
 _atom_site_occupancy
  Ba  Ba1  1  0.856145  0.712289  0.250000  1.0
  Ba  Ba2  1  0.712289  0.856145  0.750000  1.0
  Ba  Ba3  1  0.856145  0.143855  0.250000  1.0
  Ba  Ba4  1  0.143855  0.856145  0.750000  1.0
  Ba  Ba5  1  0.143855  0.287711  0.750000  1.0
  Ba  Ba6  1  0.287711  0.143855  0.250000  1.0
  Na  Na7  1  0.666667  0.333333  0.750000  1.0
  Na  Na8  1  0.333333  0.666667  0.250000  1.0
  N  N9  1  0.000000  0.000000  0.500000  1.0
  N  N10  1  0.000000  0.000000  0.000000  1.0
