# generated using pymatgen
data_Rb3Sb
_symmetry_space_group_name_H-M   'P 1'
_cell_length_a   6.34348859
_cell_length_b   6.34348825
_cell_length_c   6.34348809
_cell_angle_alpha   60.00000112
_cell_angle_beta   59.99999736
_cell_angle_gamma   59.99999817
_symmetry_Int_Tables_number   1
_chemical_formula_structural   Rb3Sb
_chemical_formula_sum   'Rb3 Sb1'
_cell_volume   180.49676509
_cell_formula_units_Z   1
loop_
 _symmetry_equiv_pos_site_id
 _symmetry_equiv_pos_as_xyz
  1  'x, y, z'
loop_
 _atom_site_type_symbol
 _atom_site_label
 _atom_site_symmetry_multiplicity
 _atom_site_fract_x
 _atom_site_fract_y
 _atom_site_fract_z
 _atom_site_occupancy
  Rb  Rb1  1  0.000000  0.000000  0.000000  1.0
  Rb  Rb2  1  0.250000  0.250000  0.250000  1.0
  Rb  Rb3  1  0.750000  0.750000  0.750000  1.0
  Sb  Sb4  1  0.500000  0.500000  0.500000  1.0
