# generated using pymatgen
data_Tb2O3
_symmetry_space_group_name_H-M   'P 1'
_cell_length_a   7.61563979
_cell_length_b   7.61563982
_cell_length_c   9.32464388
_cell_angle_alpha   35.24197976
_cell_angle_beta   35.24197969
_cell_angle_gamma   59.94511133
_symmetry_Int_Tables_number   1
_chemical_formula_structural   Tb2O3
_chemical_formula_sum   'Tb4 O6'
_cell_volume   156.03202403
_cell_formula_units_Z   2
loop_
 _symmetry_equiv_pos_site_id
 _symmetry_equiv_pos_as_xyz
  1  'x, y, z'
loop_
 _atom_site_type_symbol
 _atom_site_label
 _atom_site_symmetry_multiplicity
 _atom_site_fract_x
 _atom_site_fract_y
 _atom_site_fract_z
 _atom_site_occupancy
  Tb  Tb1  1  0.000000  0.000000  0.000000  1.0
  Tb  Tb2  1  0.000000  0.500000  0.000000  1.0
  Tb  Tb3  1  0.500000  0.000000  0.000000  1.0
  Tb  Tb4  1  0.500000  0.500000  0.000000  1.0
  O  O5  1  0.000000  0.500000  0.250000  1.0
  O  O6  1  0.500000  0.000000  0.250000  1.0
  O  O7  1  0.000000  0.500000  0.750000  1.0
  O  O8  1  0.500000  0.500000  0.250000  1.0
  O  O9  1  0.500000  0.000000  0.750000  1.0
  O  O10  1  0.500000  0.500000  0.750000  1.0
