# generated using pymatgen
data_CsNa2BO3
_symmetry_space_group_name_H-M   'P 1'
_cell_length_a   5.67828846
_cell_length_b   5.86054888
_cell_length_c   6.32642295
_cell_angle_alpha   90.00000000
_cell_angle_beta   90.00000000
_cell_angle_gamma   90.00000000
_symmetry_Int_Tables_number   1
_chemical_formula_structural   CsNa2BO3
_chemical_formula_sum   'Cs2 Na4 B2 O6'
_cell_volume   210.52998852
_cell_formula_units_Z   2
loop_
 _symmetry_equiv_pos_site_id
 _symmetry_equiv_pos_as_xyz
  1  'x, y, z'
loop_
 _atom_site_type_symbol
 _atom_site_label
 _atom_site_symmetry_multiplicity
 _atom_site_fract_x
 _atom_site_fract_y
 _atom_site_fract_z
 _atom_site_occupancy
  Cs  Cs1  1  0.873349  0.750000  0.750000  1.0
  Cs  Cs2  1  0.126651  0.250000  0.250000  1.0
  Na  Na3  1  0.360000  0.750000  0.018607  1.0
  Na  Na4  1  0.360000  0.750000  0.481393  1.0
  Na  Na5  1  0.640000  0.250000  0.981393  1.0
  Na  Na6  1  0.640000  0.250000  0.518607  1.0
  B  B7  1  0.781184  0.750000  0.250000  1.0
  B  B8  1  0.218816  0.250000  0.750000  1.0
  O  O9  1  0.651247  0.544555  0.250000  1.0
  O  O10  1  0.348753  0.455445  0.750000  1.0
  O  O11  1  0.026373  0.750000  0.250000  1.0
  O  O12  1  0.973627  0.250000  0.750000  1.0
  O  O13  1  0.348753  0.044555  0.750000  1.0
  O  O14  1  0.651247  0.955445  0.250000  1.0
