# generated using pymatgen
data_Li6FeN4
_symmetry_space_group_name_H-M   'P 1'
_cell_length_a   6.47704458
_cell_length_b   6.47704458
_cell_length_c   4.90053313
_cell_angle_alpha   90.00000000
_cell_angle_beta   90.00000000
_cell_angle_gamma   90.00000000
_symmetry_Int_Tables_number   1
_chemical_formula_structural   Li6FeN4
_chemical_formula_sum   'Li12 Fe2 N8'
_cell_volume   205.58768773
_cell_formula_units_Z   2
loop_
 _symmetry_equiv_pos_site_id
 _symmetry_equiv_pos_as_xyz
  1  'x, y, z'
loop_
 _atom_site_type_symbol
 _atom_site_label
 _atom_site_symmetry_multiplicity
 _atom_site_fract_x
 _atom_site_fract_y
 _atom_site_fract_z
 _atom_site_occupancy
  Li  Li1  1  0.500000  0.000000  0.611738  1.0
  Li  Li2  1  0.000000  0.500000  0.888262  1.0
  Li  Li3  1  0.000000  0.500000  0.388262  1.0
  Li  Li4  1  0.500000  0.000000  0.111738  1.0
  Li  Li5  1  0.215181  0.215181  0.500000  1.0
  Li  Li6  1  0.784819  0.784819  0.500000  1.0
  Li  Li7  1  0.715181  0.715181  0.000000  1.0
  Li  Li8  1  0.284819  0.284819  0.000000  1.0
  Li  Li9  1  0.215181  0.784819  0.500000  1.0
  Li  Li10  1  0.784819  0.215181  0.500000  1.0
  Li  Li11  1  0.715181  0.284819  0.000000  1.0
  Li  Li12  1  0.284819  0.715181  0.000000  1.0
  Fe  Fe13  1  0.500000  0.500000  0.500000  1.0
  Fe  Fe14  1  0.000000  0.000000  0.000000  1.0
  N  N15  1  0.500000  0.265508  0.314606  1.0
  N  N16  1  0.500000  0.734492  0.314606  1.0
  N  N17  1  0.000000  0.765508  0.185394  1.0
  N  N18  1  0.000000  0.234492  0.185394  1.0
  N  N19  1  0.265508  0.500000  0.685394  1.0
  N  N20  1  0.734492  0.500000  0.685394  1.0
  N  N21  1  0.765508  0.000000  0.814606  1.0
  N  N22  1  0.234492  0.000000  0.814606  1.0
