# generated using pymatgen
data_V2CN
_symmetry_space_group_name_H-M   'P 1'
_cell_length_a   5.85263095
_cell_length_b   7.75778478
_cell_length_c   5.09214281
_cell_angle_alpha   29.17159057
_cell_angle_beta   54.92329432
_cell_angle_gamma   41.02524902
_symmetry_Int_Tables_number   1
_chemical_formula_structural   V2CN
_chemical_formula_sum   'V4 C2 N2'
_cell_volume   71.37231189
_cell_formula_units_Z   2
loop_
 _symmetry_equiv_pos_site_id
 _symmetry_equiv_pos_as_xyz
  1  'x, y, z'
loop_
 _atom_site_type_symbol
 _atom_site_label
 _atom_site_symmetry_multiplicity
 _atom_site_fract_x
 _atom_site_fract_y
 _atom_site_fract_z
 _atom_site_occupancy
  V  V1  1  0.992364  0.000000  0.015271  1.0
  V  V2  1  0.507636  0.000000  0.984729  1.0
  V  V3  1  0.257636  0.500000  0.984729  1.0
  V  V4  1  0.742364  0.500000  0.015271  1.0
  C  C5  1  0.750000  0.000000  0.500000  1.0
  C  C6  1  0.500000  0.500000  0.500000  1.0
  N  N7  1  0.250000  0.000000  0.500000  1.0
  N  N8  1  0.000000  0.500000  0.500000  1.0
