# generated using pymatgen
data_Te
_symmetry_space_group_name_H-M   'P 1'
_cell_length_a   4.55976584
_cell_length_b   4.55976583
_cell_length_c   4.55976583
_cell_angle_alpha   58.89938468
_cell_angle_beta   58.89938462
_cell_angle_gamma   58.89938474
_symmetry_Int_Tables_number   1
_chemical_formula_structural   Te
_chemical_formula_sum   Te2
_cell_volume   65.35272084
_cell_formula_units_Z   2
loop_
 _symmetry_equiv_pos_site_id
 _symmetry_equiv_pos_as_xyz
  1  'x, y, z'
loop_
 _atom_site_type_symbol
 _atom_site_label
 _atom_site_symmetry_multiplicity
 _atom_site_fract_x
 _atom_site_fract_y
 _atom_site_fract_z
 _atom_site_occupancy
  Te  Te1  1  0.249975  0.249975  0.249975  1.0
  Te  Te2  1  0.750025  0.750025  0.750025  1.0
