# generated using pymatgen
data_RbBi2
_symmetry_space_group_name_H-M   'P 1'
_cell_length_a   6.86683699
_cell_length_b   6.86683698
_cell_length_c   6.86683699
_cell_angle_alpha   60.00000002
_cell_angle_beta   60.00000005
_cell_angle_gamma   60.00000003
_symmetry_Int_Tables_number   1
_chemical_formula_structural   RbBi2
_chemical_formula_sum   'Rb2 Bi4'
_cell_volume   228.95767991
_cell_formula_units_Z   2
loop_
 _symmetry_equiv_pos_site_id
 _symmetry_equiv_pos_as_xyz
  1  'x, y, z'
loop_
 _atom_site_type_symbol
 _atom_site_label
 _atom_site_symmetry_multiplicity
 _atom_site_fract_x
 _atom_site_fract_y
 _atom_site_fract_z
 _atom_site_occupancy
  Rb  Rb1  1  0.625000  0.625000  0.625000  1.0
  Rb  Rb2  1  0.375000  0.375000  0.375000  1.0
  Bi  Bi3  1  0.500000  0.000000  0.000000  1.0
  Bi  Bi4  1  0.000000  0.500000  0.000000  1.0
  Bi  Bi5  1  0.000000  0.000000  0.500000  1.0
  Bi  Bi6  1  0.000000  0.000000  0.000000  1.0
