# generated using pymatgen
data_TmAgTe2
_symmetry_space_group_name_H-M   'P 1'
_cell_length_a   4.65426282
_cell_length_b   7.09623580
_cell_length_c   7.09623580
_cell_angle_alpha   90.00000000
_cell_angle_beta   90.00000000
_cell_angle_gamma   90.00000000
_symmetry_Int_Tables_number   1
_chemical_formula_structural   TmAgTe2
_chemical_formula_sum   'Tm2 Ag2 Te4'
_cell_volume   234.37267672
_cell_formula_units_Z   2
loop_
 _symmetry_equiv_pos_site_id
 _symmetry_equiv_pos_as_xyz
  1  'x, y, z'
loop_
 _atom_site_type_symbol
 _atom_site_label
 _atom_site_symmetry_multiplicity
 _atom_site_fract_x
 _atom_site_fract_y
 _atom_site_fract_z
 _atom_site_occupancy
  Tm  Tm1  1  0.801210  0.000000  0.500000  1.0
  Tm  Tm2  1  0.198790  0.500000  0.000000  1.0
  Ag  Ag3  1  0.000000  0.500000  0.500000  1.0
  Ag  Ag4  1  0.000000  0.000000  0.000000  1.0
  Te  Te5  1  0.288078  0.201850  0.701850  1.0
  Te  Te6  1  0.711922  0.298150  0.201850  1.0
  Te  Te7  1  0.288078  0.798150  0.298150  1.0
  Te  Te8  1  0.711922  0.701850  0.798150  1.0
