# generated using pymatgen
data_NaNbO2
_symmetry_space_group_name_H-M   'P 1'
_cell_length_a   6.15816323
_cell_length_b   6.15816274
_cell_length_c   6.15816330
_cell_angle_alpha   28.02821550
_cell_angle_beta   28.02822162
_cell_angle_gamma   28.02822165
_symmetry_Int_Tables_number   1
_chemical_formula_structural   NaNbO2
_chemical_formula_sum   'Na1 Nb1 O2'
_cell_volume   45.54837636
_cell_formula_units_Z   1
loop_
 _symmetry_equiv_pos_site_id
 _symmetry_equiv_pos_as_xyz
  1  'x, y, z'
loop_
 _atom_site_type_symbol
 _atom_site_label
 _atom_site_symmetry_multiplicity
 _atom_site_fract_x
 _atom_site_fract_y
 _atom_site_fract_z
 _atom_site_occupancy
  Na  Na1  1  0.500000  0.500000  0.500000  1.0
  Nb  Nb2  1  0.000000  0.000000  0.000000  1.0
  O  O3  1  0.256638  0.256638  0.256638  1.0
  O  O4  1  0.743362  0.743362  0.743362  1.0
