# generated using pymatgen
data_Ca2B4Rh5
_symmetry_space_group_name_H-M   'P 1'
_cell_length_a   5.52331430
_cell_length_b   5.64608294
_cell_length_c   6.28241252
_cell_angle_alpha   77.58367802
_cell_angle_beta   63.92256558
_cell_angle_gamma   60.71671758
_symmetry_Int_Tables_number   1
_chemical_formula_structural   Ca2B4Rh5
_chemical_formula_sum   'Ca2 B4 Rh5'
_cell_volume   153.48606626
_cell_formula_units_Z   1
loop_
 _symmetry_equiv_pos_site_id
 _symmetry_equiv_pos_as_xyz
  1  'x, y, z'
loop_
 _atom_site_type_symbol
 _atom_site_label
 _atom_site_symmetry_multiplicity
 _atom_site_fract_x
 _atom_site_fract_y
 _atom_site_fract_z
 _atom_site_occupancy
  Ca  Ca1  1  0.142994  0.000000  0.714013  1.0
  Ca  Ca2  1  0.857006  0.000000  0.285987  1.0
  B  B3  1  0.208332  0.322800  0.260536  1.0
  B  B4  1  0.791668  0.677200  0.739464  1.0
  B  B5  1  0.468868  0.322800  0.739464  1.0
  B  B6  1  0.531132  0.677200  0.260536  1.0
  Rh  Rh7  1  0.500000  0.000000  0.000000  1.0
  Rh  Rh8  1  0.500000  0.500000  0.000000  1.0
  Rh  Rh9  1  0.000000  0.500000  0.000000  1.0
  Rh  Rh10  1  0.250000  0.500000  0.500000  1.0
  Rh  Rh11  1  0.750000  0.500000  0.500000  1.0
