# generated using pymatgen
data_PaB3
_symmetry_space_group_name_H-M   'P 1'
_cell_length_a   5.45251378
_cell_length_b   5.45249969
_cell_length_c   3.43963235
_cell_angle_alpha   89.94580079
_cell_angle_beta   90.05356217
_cell_angle_gamma   119.99252087
_symmetry_Int_Tables_number   1
_chemical_formula_structural   PaB3
_chemical_formula_sum   'Pa2 B6'
_cell_volume   88.56610539
_cell_formula_units_Z   2
loop_
 _symmetry_equiv_pos_site_id
 _symmetry_equiv_pos_as_xyz
  1  'x, y, z'
loop_
 _atom_site_type_symbol
 _atom_site_label
 _atom_site_symmetry_multiplicity
 _atom_site_fract_x
 _atom_site_fract_y
 _atom_site_fract_z
 _atom_site_occupancy
  Pa  Pa1  1  0.666632  0.333347  0.249978  1.0
  Pa  Pa2  1  0.333354  0.666636  0.750011  1.0
  B  B3  1  0.887408  0.112601  0.750259  1.0
  B  B4  1  0.225155  0.112576  0.749870  1.0
  B  B5  1  0.887429  0.774849  0.749868  1.0
  B  B6  1  0.112591  0.887413  0.249744  1.0
  B  B7  1  0.774862  0.887433  0.250134  1.0
  B  B8  1  0.112572  0.225145  0.250133  1.0
