# generated using pymatgen
data_LiO3
_symmetry_space_group_name_H-M   'P 1'
_cell_length_a   3.16313887
_cell_length_b   4.01133332
_cell_length_c   4.01133332
_cell_angle_alpha   76.83765657
_cell_angle_beta   66.77921922
_cell_angle_gamma   66.77921922
_symmetry_Int_Tables_number   1
_chemical_formula_structural   LiO3
_chemical_formula_sum   'Li1 O3'
_cell_volume   42.82764438
_cell_formula_units_Z   1
loop_
 _symmetry_equiv_pos_site_id
 _symmetry_equiv_pos_as_xyz
  1  'x, y, z'
loop_
 _atom_site_type_symbol
 _atom_site_label
 _atom_site_symmetry_multiplicity
 _atom_site_fract_x
 _atom_site_fract_y
 _atom_site_fract_z
 _atom_site_occupancy
  Li  Li1  1  0.483370  0.516630  0.516630  1.0
  O  O2  1  0.985181  0.014819  0.014819  1.0
  O  O3  1  0.125624  0.100632  0.648120  1.0
  O  O4  1  0.125624  0.648120  0.100632  1.0
