# generated using pymatgen
data_AlNi2
_symmetry_space_group_name_H-M   'P 1'
_cell_length_a   4.01338094
_cell_length_b   4.01338094
_cell_length_c   4.94664852
_cell_angle_alpha   90.00000000
_cell_angle_beta   90.00000000
_cell_angle_gamma   120.00000525
_symmetry_Int_Tables_number   1
_chemical_formula_structural   AlNi2
_chemical_formula_sum   'Al2 Ni4'
_cell_volume   69.00211926
_cell_formula_units_Z   2
loop_
 _symmetry_equiv_pos_site_id
 _symmetry_equiv_pos_as_xyz
  1  'x, y, z'
loop_
 _atom_site_type_symbol
 _atom_site_label
 _atom_site_symmetry_multiplicity
 _atom_site_fract_x
 _atom_site_fract_y
 _atom_site_fract_z
 _atom_site_occupancy
  Al  Al1  1  0.666667  0.333333  0.809425  1.0
  Al  Al2  1  0.333333  0.666667  0.190575  1.0
  Ni  Ni3  1  0.666667  0.333333  0.313341  1.0
  Ni  Ni4  1  0.333333  0.666667  0.686659  1.0
  Ni  Ni5  1  0.000000  0.000000  0.500000  1.0
  Ni  Ni6  1  0.000000  0.000000  0.000000  1.0
