# generated using pymatgen
data_Sr2B4Rh5
_symmetry_space_group_name_H-M   'P 1'
_cell_length_a   5.59030788
_cell_length_b   5.79067859
_cell_length_c   6.31883148
_cell_angle_alpha   77.67109427
_cell_angle_beta   63.74589285
_cell_angle_gamma   61.13818247
_symmetry_Int_Tables_number   1
_chemical_formula_structural   Sr2B4Rh5
_chemical_formula_sum   'Sr2 B4 Rh5'
_cell_volume   160.66290905
_cell_formula_units_Z   1
loop_
 _symmetry_equiv_pos_site_id
 _symmetry_equiv_pos_as_xyz
  1  'x, y, z'
loop_
 _atom_site_type_symbol
 _atom_site_label
 _atom_site_symmetry_multiplicity
 _atom_site_fract_x
 _atom_site_fract_y
 _atom_site_fract_z
 _atom_site_occupancy
  Sr  Sr1  1  0.144398  0.000000  0.711205  1.0
  Sr  Sr2  1  0.855602  0.000000  0.288795  1.0
  B  B3  1  0.206850  0.330121  0.256179  1.0
  B  B4  1  0.793150  0.669879  0.743821  1.0
  B  B5  1  0.463029  0.330121  0.743821  1.0
  B  B6  1  0.536971  0.669879  0.256179  1.0
  Rh  Rh7  1  0.500000  0.000000  0.000000  1.0
  Rh  Rh8  1  0.500000  0.500000  0.000000  1.0
  Rh  Rh9  1  0.000000  0.500000  0.000000  1.0
  Rh  Rh10  1  0.250000  0.500000  0.500000  1.0
  Rh  Rh11  1  0.750000  0.500000  0.500000  1.0
