# generated using pymatgen
data_CsTi6O12
_symmetry_space_group_name_H-M   'P 1'
_cell_length_a   8.61064863
_cell_length_b   8.61064863
_cell_length_c   8.61064863
_cell_angle_alpha   105.67626177
_cell_angle_beta   117.36109672
_cell_angle_gamma   105.67626177
_symmetry_Int_Tables_number   1
_chemical_formula_structural   CsTi6O12
_chemical_formula_sum   'Cs2 Ti12 O24'
_cell_volume   484.37805293
_cell_formula_units_Z   2
loop_
 _symmetry_equiv_pos_site_id
 _symmetry_equiv_pos_as_xyz
  1  'x, y, z'
loop_
 _atom_site_type_symbol
 _atom_site_label
 _atom_site_symmetry_multiplicity
 _atom_site_fract_x
 _atom_site_fract_y
 _atom_site_fract_z
 _atom_site_occupancy
  Cs  Cs1  1  0.875347  0.000000  0.875347  1.0
  Cs  Cs2  1  0.457986  0.000000  0.457986  1.0
  Ti  Ti3  1  0.833159  0.514868  0.015042  1.0
  Ti  Ti4  1  0.984575  0.816395  0.497252  1.0
  Ti  Ti5  1  0.652477  0.816395  0.165154  1.0
  Ti  Ti6  1  0.680857  0.183605  0.168179  1.0
  Ti  Ti7  1  0.836082  0.487323  0.652477  1.0
  Ti  Ti8  1  0.500174  0.485132  0.318291  1.0
  Ti  Ti9  1  0.497252  0.512677  0.680857  1.0
  Ti  Ti10  1  0.165154  0.512677  0.348759  1.0
  Ti  Ti11  1  0.318291  0.818117  0.833159  1.0
  Ti  Ti12  1  0.348759  0.183605  0.836082  1.0
  Ti  Ti13  1  0.015042  0.181883  0.500174  1.0
  Ti  Ti14  1  0.168179  0.487323  0.984575  1.0
  O  O15  1  0.832675  0.704139  0.204797  1.0
  O  O16  1  0.491147  0.948674  0.123113  1.0
  O  O17  1  0.823536  0.948744  0.458542  1.0
  O  O18  1  0.871567  0.370913  0.166656  1.0
  O  O19  1  0.795743  0.629087  0.500654  1.0
  O  O20  1  0.461766  0.629087  0.166678  1.0
  O  O21  1  0.842187  0.051326  0.210220  1.0
  O  O22  1  0.832680  0.295088  0.461766  1.0
  O  O23  1  0.500658  0.295861  0.128536  1.0
  O  O24  1  0.790861  0.631966  0.842187  1.0
  O  O25  1  0.458542  0.635006  0.509798  1.0
  O  O26  1  0.123113  0.631966  0.174439  1.0
  O  O27  1  0.542473  0.368034  0.491147  1.0
  O  O28  1  0.210220  0.368034  0.158894  1.0
  O  O29  1  0.874792  0.364994  0.823536  1.0
  O  O30  1  0.500654  0.704912  0.871567  1.0
  O  O31  1  0.166678  0.704912  0.537590  1.0
  O  O32  1  0.158894  0.948674  0.790861  1.0
  O  O33  1  0.537590  0.370913  0.832680  1.0
  O  O34  1  0.204797  0.372122  0.500658  1.0
  O  O35  1  0.128536  0.627878  0.832675  1.0
  O  O36  1  0.509798  0.051256  0.874792  1.0
  O  O37  1  0.174439  0.051326  0.542473  1.0
  O  O38  1  0.166656  0.295088  0.795743  1.0
