# generated using pymatgen
data_Hf3C
_symmetry_space_group_name_H-M   'P 1'
_cell_length_a   5.33958363
_cell_length_b   5.33958363
_cell_length_c   5.33958363
_cell_angle_alpha   136.81951433
_cell_angle_beta   136.81951433
_cell_angle_gamma   62.71586583
_symmetry_Int_Tables_number   1
_chemical_formula_structural   Hf3C
_chemical_formula_sum   'Hf3 C1'
_cell_volume   70.40798236
_cell_formula_units_Z   1
loop_
 _symmetry_equiv_pos_site_id
 _symmetry_equiv_pos_as_xyz
  1  'x, y, z'
loop_
 _atom_site_type_symbol
 _atom_site_label
 _atom_site_symmetry_multiplicity
 _atom_site_fract_x
 _atom_site_fract_y
 _atom_site_fract_z
 _atom_site_occupancy
  Hf  Hf1  1  0.749999  0.250000  0.499998  1.0
  Hf  Hf2  1  0.250000  0.749999  0.499998  1.0
  Hf  Hf3  1  0.500000  0.500000  0.000000  1.0
  C  C4  1  0.000000  0.000000  0.000000  1.0
