# generated using pymatgen
data_Ca3SnN
_symmetry_space_group_name_H-M   'P 1'
_cell_length_a   5.89700068
_cell_length_b   5.89701412
_cell_length_c   5.89696751
_cell_angle_alpha   89.99996279
_cell_angle_beta   90.00000029
_cell_angle_gamma   89.99944570
_symmetry_Int_Tables_number   1
_chemical_formula_structural   Ca3SnN
_chemical_formula_sum   'Ca3 Sn1 N1'
_cell_volume   205.06525410
_cell_formula_units_Z   1
loop_
 _symmetry_equiv_pos_site_id
 _symmetry_equiv_pos_as_xyz
  1  'x, y, z'
loop_
 _atom_site_type_symbol
 _atom_site_label
 _atom_site_symmetry_multiplicity
 _atom_site_fract_x
 _atom_site_fract_y
 _atom_site_fract_z
 _atom_site_occupancy
  Ca  Ca1  1  0.000000  0.500000  0.500000  1.0
  Ca  Ca2  1  0.500000  0.999999  0.499999  1.0
  Ca  Ca3  1  0.500000  0.500001  0.000001  1.0
  Sn  Sn4  1  0.500000  0.500000  0.499999  1.0
  N  N5  1  0.000000  0.000000  0.000001  1.0
