# generated using pymatgen
data_Nb6Co7
_symmetry_space_group_name_H-M   'P 1'
_cell_length_a   4.89768918
_cell_length_b   4.89768918
_cell_length_c   9.17238776
_cell_angle_alpha   74.51535918
_cell_angle_beta   74.51535918
_cell_angle_gamma   60.00000293
_symmetry_Int_Tables_number   1
_chemical_formula_structural   Nb6Co7
_chemical_formula_sum   'Nb6 Co7'
_cell_volume   181.26364601
_cell_formula_units_Z   1
loop_
 _symmetry_equiv_pos_site_id
 _symmetry_equiv_pos_as_xyz
  1  'x, y, z'
loop_
 _atom_site_type_symbol
 _atom_site_label
 _atom_site_symmetry_multiplicity
 _atom_site_fract_x
 _atom_site_fract_y
 _atom_site_fract_z
 _atom_site_occupancy
  Nb  Nb1  1  0.165381  0.165381  0.503856  1.0
  Nb  Nb2  1  0.834619  0.834619  0.496144  1.0
  Nb  Nb3  1  0.343760  0.343760  0.968720  1.0
  Nb  Nb4  1  0.656240  0.656240  0.031280  1.0
  Nb  Nb5  1  0.448874  0.448874  0.653377  1.0
  Nb  Nb6  1  0.551126  0.551126  0.346623  1.0
  Co  Co7  1  0.000000  0.000000  0.000000  1.0
  Co  Co8  1  0.593669  0.089217  0.227896  1.0
  Co  Co9  1  0.089217  0.089217  0.227896  1.0
  Co  Co10  1  0.089217  0.593669  0.227896  1.0
  Co  Co11  1  0.406331  0.910783  0.772104  1.0
  Co  Co12  1  0.910783  0.910783  0.772104  1.0
  Co  Co13  1  0.910783  0.406331  0.772104  1.0
