# generated using pymatgen
data_MoC
_symmetry_space_group_name_H-M   'P 1'
_cell_length_a   2.99298694
_cell_length_b   2.99298694
_cell_length_c   10.93028061
_cell_angle_alpha   90.00000000
_cell_angle_beta   90.00000000
_cell_angle_gamma   120.00075298
_symmetry_Int_Tables_number   1
_chemical_formula_structural   MoC
_chemical_formula_sum   'Mo4 C4'
_cell_volume   84.79461870
_cell_formula_units_Z   4
loop_
 _symmetry_equiv_pos_site_id
 _symmetry_equiv_pos_as_xyz
  1  'x, y, z'
loop_
 _atom_site_type_symbol
 _atom_site_label
 _atom_site_symmetry_multiplicity
 _atom_site_fract_x
 _atom_site_fract_y
 _atom_site_fract_z
 _atom_site_occupancy
  Mo  Mo1  1  0.666760  0.333240  0.621196  1.0
  Mo  Mo2  1  0.333240  0.666760  0.378804  1.0
  Mo  Mo3  1  0.333240  0.666760  0.121196  1.0
  Mo  Mo4  1  0.666760  0.333240  0.878804  1.0
  C  C5  1  0.000000  0.000000  0.500000  1.0
  C  C6  1  0.000000  0.000000  0.000000  1.0
  C  C7  1  0.666686  0.333313  0.250000  1.0
  C  C8  1  0.333313  0.666686  0.750000  1.0
