# generated using pymatgen
data_Ti2Cu3
_symmetry_space_group_name_H-M   'P 1'
_cell_length_a   3.13598316
_cell_length_b   3.13598316
_cell_length_c   7.37862526
_cell_angle_alpha   102.26916690
_cell_angle_beta   102.26916690
_cell_angle_gamma   90.00000000
_symmetry_Int_Tables_number   1
_chemical_formula_structural   Ti2Cu3
_chemical_formula_sum   'Ti2 Cu3'
_cell_volume   69.20987814
_cell_formula_units_Z   1
loop_
 _symmetry_equiv_pos_site_id
 _symmetry_equiv_pos_as_xyz
  1  'x, y, z'
loop_
 _atom_site_type_symbol
 _atom_site_label
 _atom_site_symmetry_multiplicity
 _atom_site_fract_x
 _atom_site_fract_y
 _atom_site_fract_z
 _atom_site_occupancy
  Ti  Ti1  1  0.604869  0.604869  0.209737  1.0
  Ti  Ti2  1  0.395131  0.395131  0.790263  1.0
  Cu  Cu3  1  0.000000  0.000000  0.000000  1.0
  Cu  Cu4  1  0.795008  0.795008  0.590016  1.0
  Cu  Cu5  1  0.204992  0.204992  0.409984  1.0
