# generated using pymatgen
data_MnAu4
_symmetry_space_group_name_H-M   'P 1'
_cell_length_a   4.06272091
_cell_length_b   5.05607400
_cell_length_c   5.05607400
_cell_angle_alpha   80.71089242
_cell_angle_beta   66.31135126
_cell_angle_gamma   66.31135126
_symmetry_Int_Tables_number   1
_chemical_formula_structural   MnAu4
_chemical_formula_sum   'Mn1 Au4'
_cell_volume   87.09441300
_cell_formula_units_Z   1
loop_
 _symmetry_equiv_pos_site_id
 _symmetry_equiv_pos_as_xyz
  1  'x, y, z'
loop_
 _atom_site_type_symbol
 _atom_site_label
 _atom_site_symmetry_multiplicity
 _atom_site_fract_x
 _atom_site_fract_y
 _atom_site_fract_z
 _atom_site_occupancy
  Mn  Mn1  1  0.000000  0.000000  0.000000  1.0
  Au  Au2  1  0.602541  0.601756  0.193162  1.0
  Au  Au3  1  0.397459  0.398244  0.806838  1.0
  Au  Au4  1  0.204297  0.193162  0.398244  1.0
  Au  Au5  1  0.795703  0.806838  0.601756  1.0
