# generated using pymatgen
data_Mg5Cd
_symmetry_space_group_name_H-M   'P 1'
_cell_length_a   3.14899869
_cell_length_b   3.14899922
_cell_length_c   15.91280566
_cell_angle_alpha   90.00000000
_cell_angle_beta   90.00000000
_cell_angle_gamma   120.00000667
_symmetry_Int_Tables_number   1
_chemical_formula_structural   Mg5Cd
_chemical_formula_sum   'Mg5 Cd1'
_cell_volume   136.65401446
_cell_formula_units_Z   1
loop_
 _symmetry_equiv_pos_site_id
 _symmetry_equiv_pos_as_xyz
  1  'x, y, z'
loop_
 _atom_site_type_symbol
 _atom_site_label
 _atom_site_symmetry_multiplicity
 _atom_site_fract_x
 _atom_site_fract_y
 _atom_site_fract_z
 _atom_site_occupancy
  Mg  Mg1  1  0.000000  0.000000  0.834952  1.0
  Mg  Mg2  1  0.333333  0.666667  0.667321  1.0
  Mg  Mg3  1  0.000000  0.000000  0.500000  1.0
  Mg  Mg4  1  0.333333  0.666667  0.332679  1.0
  Mg  Mg5  1  0.000000  0.000000  0.165048  1.0
  Cd  Cd6  1  0.333333  0.666667  0.000000  1.0
