# generated using pymatgen
data_K2WCl6
_symmetry_space_group_name_H-M   'P 1'
_cell_length_a   7.08548782
_cell_length_b   7.08548784
_cell_length_c   7.08548796
_cell_angle_alpha   59.99999946
_cell_angle_beta   59.99999935
_cell_angle_gamma   59.99999965
_symmetry_Int_Tables_number   1
_chemical_formula_structural   K2WCl6
_chemical_formula_sum   'K2 W1 Cl6'
_cell_volume   251.53259675
_cell_formula_units_Z   1
loop_
 _symmetry_equiv_pos_site_id
 _symmetry_equiv_pos_as_xyz
  1  'x, y, z'
loop_
 _atom_site_type_symbol
 _atom_site_label
 _atom_site_symmetry_multiplicity
 _atom_site_fract_x
 _atom_site_fract_y
 _atom_site_fract_z
 _atom_site_occupancy
  K  K1  1  0.250000  0.250000  0.250000  1.0
  K  K2  1  0.750000  0.750000  0.750000  1.0
  W  W3  1  0.000000  0.000000  0.000000  1.0
  Cl  Cl4  1  0.238946  0.761054  0.761054  1.0
  Cl  Cl5  1  0.761054  0.238946  0.761054  1.0
  Cl  Cl6  1  0.238946  0.238946  0.761054  1.0
  Cl  Cl7  1  0.238946  0.761054  0.238946  1.0
  Cl  Cl8  1  0.761054  0.761054  0.238946  1.0
  Cl  Cl9  1  0.761054  0.238946  0.238946  1.0
