# generated using pymatgen
data_HfTe2
_symmetry_space_group_name_H-M   'P 1'
_cell_length_a   4.01826076
_cell_length_b   4.01826075
_cell_length_c   7.62879400
_cell_angle_alpha   90.00000000
_cell_angle_beta   90.00000000
_cell_angle_gamma   120.00000012
_symmetry_Int_Tables_number   1
_chemical_formula_structural   HfTe2
_chemical_formula_sum   'Hf1 Te2'
_cell_volume   106.67502432
_cell_formula_units_Z   1
loop_
 _symmetry_equiv_pos_site_id
 _symmetry_equiv_pos_as_xyz
  1  'x, y, z'
loop_
 _atom_site_type_symbol
 _atom_site_label
 _atom_site_symmetry_multiplicity
 _atom_site_fract_x
 _atom_site_fract_y
 _atom_site_fract_z
 _atom_site_occupancy
  Hf  Hf1  1  0.000000  0.000000  0.000000  1.0
  Te  Te2  1  0.333333  0.666667  0.228088  1.0
  Te  Te3  1  0.666667  0.333333  0.771912  1.0
