# generated using pymatgen
data_ScAg2
_symmetry_space_group_name_H-M   'P 1'
_cell_length_a   3.58125164
_cell_length_b   3.58125164
_cell_length_c   5.14886607
_cell_angle_alpha   110.35103426
_cell_angle_beta   110.35103426
_cell_angle_gamma   90.00000000
_symmetry_Int_Tables_number   1
_chemical_formula_structural   ScAg2
_chemical_formula_sum   'Sc1 Ag2'
_cell_volume   57.49732123
_cell_formula_units_Z   1
loop_
 _symmetry_equiv_pos_site_id
 _symmetry_equiv_pos_as_xyz
  1  'x, y, z'
loop_
 _atom_site_type_symbol
 _atom_site_label
 _atom_site_symmetry_multiplicity
 _atom_site_fract_x
 _atom_site_fract_y
 _atom_site_fract_z
 _atom_site_occupancy
  Sc  Sc1  1  0.000000  0.000000  0.000000  1.0
  Ag  Ag2  1  0.665396  0.665396  0.330792  1.0
  Ag  Ag3  1  0.334604  0.334604  0.669208  1.0
