# generated using pymatgen
data_CrP4
_symmetry_space_group_name_H-M   'P 1'
_cell_length_a   5.19715700
_cell_length_b   5.72203848
_cell_length_c   5.97423618
_cell_angle_alpha   81.26808516
_cell_angle_beta   64.21698795
_cell_angle_gamma   69.57258309
_symmetry_Int_Tables_number   1
_chemical_formula_structural   CrP4
_chemical_formula_sum   'Cr2 P8'
_cell_volume   149.91685293
_cell_formula_units_Z   2
loop_
 _symmetry_equiv_pos_site_id
 _symmetry_equiv_pos_as_xyz
  1  'x, y, z'
loop_
 _atom_site_type_symbol
 _atom_site_label
 _atom_site_symmetry_multiplicity
 _atom_site_fract_x
 _atom_site_fract_y
 _atom_site_fract_z
 _atom_site_occupancy
  Cr  Cr1  1  0.060246  0.250000  0.879509  1.0
  Cr  Cr2  1  0.939754  0.750000  0.120491  1.0
  P  P3  1  0.491734  0.309066  0.562602  1.0
  P  P4  1  0.945664  0.190934  0.562602  1.0
  P  P5  1  0.182675  0.323709  0.178809  1.0
  P  P6  1  0.638517  0.176291  0.178809  1.0
  P  P7  1  0.817325  0.676291  0.821191  1.0
  P  P8  1  0.361483  0.823709  0.821191  1.0
  P  P9  1  0.054336  0.809066  0.437398  1.0
  P  P10  1  0.508266  0.690934  0.437398  1.0
