# generated using pymatgen
data_UFe3B2
_symmetry_space_group_name_H-M   'P 1'
_cell_length_a   2.83284651
_cell_length_b   5.11685747
_cell_length_c   5.11853739
_cell_angle_alpha   119.98913812
_cell_angle_beta   90.00000000
_cell_angle_gamma   90.00000000
_symmetry_Int_Tables_number   1
_chemical_formula_structural   UFe3B2
_chemical_formula_sum   'U1 Fe3 B2'
_cell_volume   64.26143206
_cell_formula_units_Z   1
loop_
 _symmetry_equiv_pos_site_id
 _symmetry_equiv_pos_as_xyz
  1  'x, y, z'
loop_
 _atom_site_type_symbol
 _atom_site_label
 _atom_site_symmetry_multiplicity
 _atom_site_fract_x
 _atom_site_fract_y
 _atom_site_fract_z
 _atom_site_occupancy
  U  U1  1  0.000000  0.999984  0.000000  1.0
  Fe  Fe2  1  0.500000  0.499983  0.500001  1.0
  Fe  Fe3  1  0.500000  0.999981  0.499999  1.0
  Fe  Fe4  1  0.500000  0.499988  0.000000  1.0
  B  B5  1  0.000000  0.333364  0.666765  1.0
  B  B6  1  0.000000  0.666599  0.333235  1.0
