# generated using pymatgen
data_TiFe2Si
_symmetry_space_group_name_H-M   'P 1'
_cell_length_a   4.02659367
_cell_length_b   4.02659367
_cell_length_c   4.02659367
_cell_angle_alpha   59.94472275
_cell_angle_beta   59.94472275
_cell_angle_gamma   59.94472275
_symmetry_Int_Tables_number   1
_chemical_formula_structural   TiFe2Si
_chemical_formula_sum   'Ti1 Fe2 Si1'
_cell_volume   46.10559184
_cell_formula_units_Z   1
loop_
 _symmetry_equiv_pos_site_id
 _symmetry_equiv_pos_as_xyz
  1  'x, y, z'
loop_
 _atom_site_type_symbol
 _atom_site_label
 _atom_site_symmetry_multiplicity
 _atom_site_fract_x
 _atom_site_fract_y
 _atom_site_fract_z
 _atom_site_occupancy
  Ti  Ti1  1  0.749981  0.749981  0.749981  1.0
  Fe  Fe2  1  0.000008  0.000008  0.000008  1.0
  Fe  Fe3  1  0.499994  0.499994  0.499994  1.0
  Si  Si4  1  0.250014  0.250014  0.250014  1.0
