# generated using pymatgen
data_AgHgPd2
_symmetry_space_group_name_H-M   'P 1'
_cell_length_a   4.62058598
_cell_length_b   4.62058535
_cell_length_c   4.62058581
_cell_angle_alpha   60.00001473
_cell_angle_beta   60.00000557
_cell_angle_gamma   60.00000947
_symmetry_Int_Tables_number   1
_chemical_formula_structural   AgHgPd2
_chemical_formula_sum   'Ag1 Hg1 Pd2'
_cell_volume   69.75513648
_cell_formula_units_Z   1
loop_
 _symmetry_equiv_pos_site_id
 _symmetry_equiv_pos_as_xyz
  1  'x, y, z'
loop_
 _atom_site_type_symbol
 _atom_site_label
 _atom_site_symmetry_multiplicity
 _atom_site_fract_x
 _atom_site_fract_y
 _atom_site_fract_z
 _atom_site_occupancy
  Ag  Ag1  1  0.249999  0.249999  0.249999  1.0
  Hg  Hg2  1  0.750001  0.750001  0.750001  1.0
  Pd  Pd3  1  0.499999  0.499999  0.499999  1.0
  Pd  Pd4  1  0.000000  0.000000  0.000000  1.0
