# generated using pymatgen
data_YMg5
_symmetry_space_group_name_H-M   'P 1'
_cell_length_a   3.67976257
_cell_length_b   6.26986464
_cell_length_c   7.03432065
_cell_angle_alpha   73.09076084
_cell_angle_beta   90.00000000
_cell_angle_gamma   107.06451069
_symmetry_Int_Tables_number   1
_chemical_formula_structural   YMg5
_chemical_formula_sum   'Y1 Mg5'
_cell_volume   147.79287730
_cell_formula_units_Z   1
loop_
 _symmetry_equiv_pos_site_id
 _symmetry_equiv_pos_as_xyz
  1  'x, y, z'
loop_
 _atom_site_type_symbol
 _atom_site_label
 _atom_site_symmetry_multiplicity
 _atom_site_fract_x
 _atom_site_fract_y
 _atom_site_fract_z
 _atom_site_occupancy
  Y  Y1  1  0.361241  0.722482  0.777977  1.0
  Mg  Mg2  1  0.036560  0.073120  0.949712  1.0
  Mg  Mg3  1  0.689624  0.379248  0.122516  1.0
  Mg  Mg4  1  0.361014  0.722029  0.278210  1.0
  Mg  Mg5  1  0.032901  0.065804  0.432164  1.0
  Mg  Mg6  1  0.685325  0.370652  0.606085  1.0
