# generated using pymatgen
data_Y2NiRu
_symmetry_space_group_name_H-M   'P 1'
_cell_length_a   4.83722714
_cell_length_b   4.83721593
_cell_length_c   4.83722325
_cell_angle_alpha   59.99973225
_cell_angle_beta   59.99989183
_cell_angle_gamma   59.99959391
_symmetry_Int_Tables_number   1
_chemical_formula_structural   Y2NiRu
_chemical_formula_sum   'Y2 Ni1 Ru1'
_cell_volume   80.03326276
_cell_formula_units_Z   1
loop_
 _symmetry_equiv_pos_site_id
 _symmetry_equiv_pos_as_xyz
  1  'x, y, z'
loop_
 _atom_site_type_symbol
 _atom_site_label
 _atom_site_symmetry_multiplicity
 _atom_site_fract_x
 _atom_site_fract_y
 _atom_site_fract_z
 _atom_site_occupancy
  Y  Y1  1  0.000001  0.000000  0.999999  1.0
  Y  Y2  1  0.499999  0.500000  0.500000  1.0
  Ni  Ni3  1  0.249999  0.250000  0.250001  1.0
  Ru  Ru4  1  0.750001  0.750000  0.750000  1.0
