# generated using pymatgen
data_Ca4VN4
_symmetry_space_group_name_H-M   'P 1'
_cell_length_a   5.94576983
_cell_length_b   6.05613691
_cell_length_c   8.82230135
_cell_angle_alpha   72.88848733
_cell_angle_beta   80.00183391
_cell_angle_gamma   68.15439542
_symmetry_Int_Tables_number   1
_chemical_formula_structural   Ca4VN4
_chemical_formula_sum   'Ca8 V2 N8'
_cell_volume   281.07465793
_cell_formula_units_Z   2
loop_
 _symmetry_equiv_pos_site_id
 _symmetry_equiv_pos_as_xyz
  1  'x, y, z'
loop_
 _atom_site_type_symbol
 _atom_site_label
 _atom_site_symmetry_multiplicity
 _atom_site_fract_x
 _atom_site_fract_y
 _atom_site_fract_z
 _atom_site_occupancy
  Ca  Ca1  1  0.787271  0.574604  0.174661  1.0
  Ca  Ca2  1  0.212729  0.425396  0.825339  1.0
  Ca  Ca3  1  0.738852  0.219041  0.972292  1.0
  Ca  Ca4  1  0.261148  0.780959  0.027708  1.0
  Ca  Ca5  1  0.734431  0.477560  0.576101  1.0
  Ca  Ca6  1  0.265569  0.522440  0.423899  1.0
  Ca  Ca7  1  0.227513  0.962362  0.615581  1.0
  Ca  Ca8  1  0.772487  0.037638  0.384419  1.0
  V  V9  1  0.718565  0.848318  0.754355  1.0
  V  V10  1  0.281436  0.151682  0.245645  1.0
  N  N11  1  0.959551  0.719602  0.611764  1.0
  N  N12  1  0.040449  0.280398  0.388236  1.0
  N  N13  1  0.882080  0.819484  0.922114  1.0
  N  N14  1  0.117920  0.180516  0.077886  1.0
  N  N15  1  0.524035  0.647290  0.801962  1.0
  N  N16  1  0.475965  0.352710  0.198038  1.0
  N  N17  1  0.467845  0.836677  0.351753  1.0
  N  N18  1  0.532155  0.163323  0.648247  1.0
