# generated using pymatgen
data_ZrO2
_symmetry_space_group_name_H-M   'P 1'
_cell_length_a   4.04297042
_cell_length_b   6.99358577
_cell_length_c   7.11783833
_cell_angle_alpha   74.16781260
_cell_angle_beta   90.00000000
_cell_angle_gamma   73.19900260
_symmetry_Int_Tables_number   1
_chemical_formula_structural   ZrO2
_chemical_formula_sum   'Zr4 O8'
_cell_volume   184.67569691
_cell_formula_units_Z   4
loop_
 _symmetry_equiv_pos_site_id
 _symmetry_equiv_pos_as_xyz
  1  'x, y, z'
loop_
 _atom_site_type_symbol
 _atom_site_label
 _atom_site_symmetry_multiplicity
 _atom_site_fract_x
 _atom_site_fract_y
 _atom_site_fract_z
 _atom_site_occupancy
  Zr  Zr1  1  0.099851  0.800298  0.710064  1.0
  Zr  Zr2  1  0.194610  0.610781  0.287055  1.0
  Zr  Zr3  1  0.805390  0.389219  0.712945  1.0
  Zr  Zr4  1  0.900149  0.199702  0.289936  1.0
  O  O5  1  0.059869  0.880264  0.377877  1.0
  O  O6  1  0.641895  0.716210  0.706453  1.0
  O  O7  1  0.132078  0.735844  0.004209  1.0
  O  O8  1  0.259074  0.481851  0.646470  1.0
  O  O9  1  0.740926  0.518149  0.353530  1.0
  O  O10  1  0.867922  0.264156  0.995791  1.0
  O  O11  1  0.358105  0.283790  0.293547  1.0
  O  O12  1  0.940131  0.119736  0.622123  1.0
