# generated using pymatgen
data_H5CNO2
_symmetry_space_group_name_H-M   'P 1'
_cell_length_a   3.90613466
_cell_length_b   4.72357097
_cell_length_c   9.18250412
_cell_angle_alpha   90.00000000
_cell_angle_beta   92.88930604
_cell_angle_gamma   90.00000000
_symmetry_Int_Tables_number   1
_chemical_formula_structural   H5CNO2
_chemical_formula_sum   'H10 C2 N2 O4'
_cell_volume   169.21012798
_cell_formula_units_Z   2
loop_
 _symmetry_equiv_pos_site_id
 _symmetry_equiv_pos_as_xyz
  1  'x, y, z'
loop_
 _atom_site_type_symbol
 _atom_site_label
 _atom_site_symmetry_multiplicity
 _atom_site_fract_x
 _atom_site_fract_y
 _atom_site_fract_z
 _atom_site_occupancy
  H  H1  1  0.836048  0.963500  0.583763  1.0
  H  H2  1  0.144284  0.735905  0.524518  1.0
  H  H3  1  0.855343  0.893086  0.401011  1.0
  H  H4  1  0.163553  0.092731  0.495618  1.0
  H  H5  1  0.836048  0.036500  0.083764  1.0
  H  H6  1  0.494490  0.545442  0.770602  1.0
  H  H7  1  0.855343  0.106914  0.901011  1.0
  H  H8  1  0.144284  0.264095  0.024518  1.0
  H  H9  1  0.163553  0.907269  0.995618  1.0
  H  H10  1  0.494490  0.454558  0.270602  1.0
  C  C11  1  0.499583  0.629313  0.189390  1.0
  C  C12  1  0.499583  0.370687  0.689390  1.0
  N  N13  1  0.999634  0.081088  0.999905  1.0
  N  N14  1  0.999634  0.918912  0.499905  1.0
  O  O15  1  0.624144  0.865306  0.232885  1.0
  O  O16  1  0.624144  0.134694  0.732885  1.0
  O  O17  1  0.380220  0.577844  0.060807  1.0
  O  O18  1  0.380220  0.422156  0.560807  1.0
