# generated using pymatgen
data_CaZnSO
_symmetry_space_group_name_H-M   'P 1'
_cell_length_a   3.77892088
_cell_length_b   3.77892088
_cell_length_c   11.51509429
_cell_angle_alpha   90.00000000
_cell_angle_beta   90.00000000
_cell_angle_gamma   120.00000001
_symmetry_Int_Tables_number   1
_chemical_formula_structural   CaZnSO
_chemical_formula_sum   'Ca2 Zn2 S2 O2'
_cell_volume   142.40778396
_cell_formula_units_Z   2
loop_
 _symmetry_equiv_pos_site_id
 _symmetry_equiv_pos_as_xyz
  1  'x, y, z'
loop_
 _atom_site_type_symbol
 _atom_site_label
 _atom_site_symmetry_multiplicity
 _atom_site_fract_x
 _atom_site_fract_y
 _atom_site_fract_z
 _atom_site_occupancy
  Ca  Ca1  1  0.333333  0.666667  0.271864  1.0
  Ca  Ca2  1  0.666667  0.333333  0.771864  1.0
  Zn  Zn3  1  0.000000  0.000000  0.500562  1.0
  Zn  Zn4  1  0.000000  0.000000  0.000562  1.0
  S  S5  1  0.666667  0.333333  0.082549  1.0
  S  S6  1  0.333333  0.666667  0.582549  1.0
  O  O7  1  0.000000  0.000000  0.832716  1.0
  O  O8  1  0.000000  0.000000  0.332716  1.0
