# generated using pymatgen
data_Mn5O8
_symmetry_space_group_name_H-M   'P 1'
_cell_length_a   4.94468023
_cell_length_b   5.81607251
_cell_length_c   9.97669405
_cell_angle_alpha   90.00000622
_cell_angle_beta   81.54180056
_cell_angle_gamma   90.00000321
_symmetry_Int_Tables_number   1
_chemical_formula_structural   Mn5O8
_chemical_formula_sum   'Mn10 O16'
_cell_volume   283.79528093
_cell_formula_units_Z   2
loop_
 _symmetry_equiv_pos_site_id
 _symmetry_equiv_pos_as_xyz
  1  'x, y, z'
loop_
 _atom_site_type_symbol
 _atom_site_label
 _atom_site_symmetry_multiplicity
 _atom_site_fract_x
 _atom_site_fract_y
 _atom_site_fract_z
 _atom_site_occupancy
  Mn  Mn1  1  0.433972  0.500000  0.220207  1.0
  Mn  Mn2  1  0.937053  0.000000  0.721329  1.0
  Mn  Mn3  1  0.062947  0.000000  0.278671  1.0
  Mn  Mn4  1  0.566028  0.500000  0.779793  1.0
  Mn  Mn5  1  0.500000  0.000000  0.000000  1.0
  Mn  Mn6  1  0.000000  0.500000  0.500000  1.0
  Mn  Mn7  1  0.000000  0.259298  0.000000  1.0
  Mn  Mn8  1  0.500000  0.759284  0.500000  1.0
  Mn  Mn9  1  0.000000  0.740702  0.000000  1.0
  Mn  Mn10  1  0.500000  0.240716  0.500000  1.0
  O  O11  1  0.215598  0.725094  0.389340  1.0
  O  O12  1  0.718167  0.226522  0.887468  1.0
  O  O13  1  0.281833  0.226522  0.112532  1.0
  O  O14  1  0.784402  0.725094  0.610660  1.0
  O  O15  1  0.215598  0.274906  0.389340  1.0
  O  O16  1  0.718167  0.773478  0.887468  1.0
  O  O17  1  0.281833  0.773478  0.112532  1.0
  O  O18  1  0.784402  0.274906  0.610660  1.0
  O  O19  1  0.806281  0.000000  0.104209  1.0
  O  O20  1  0.303510  0.500000  0.602468  1.0
  O  O21  1  0.696490  0.500000  0.397532  1.0
  O  O22  1  0.193719  0.000000  0.895791  1.0
  O  O23  1  0.827066  0.500000  0.105357  1.0
  O  O24  1  0.327467  0.000000  0.605364  1.0
  O  O25  1  0.672533  0.000000  0.394636  1.0
  O  O26  1  0.172934  0.500000  0.894643  1.0
