# generated using pymatgen
data_CsKICl
_symmetry_space_group_name_H-M   'P 1'
_cell_length_a   4.99111310
_cell_length_b   4.99111310
_cell_length_c   7.50941923
_cell_angle_alpha   90.00000000
_cell_angle_beta   90.00000000
_cell_angle_gamma   90.00000000
_symmetry_Int_Tables_number   1
_chemical_formula_structural   CsKICl
_chemical_formula_sum   'Cs1 K1 I1 Cl1'
_cell_volume   187.06871924
_cell_formula_units_Z   1
loop_
 _symmetry_equiv_pos_site_id
 _symmetry_equiv_pos_as_xyz
  1  'x, y, z'
loop_
 _atom_site_type_symbol
 _atom_site_label
 _atom_site_symmetry_multiplicity
 _atom_site_fract_x
 _atom_site_fract_y
 _atom_site_fract_z
 _atom_site_occupancy
  Cs  Cs1  1  0.500000  0.500000  0.500000  1.0
  K  K2  1  0.000000  0.000000  0.000000  1.0
  I  I3  1  0.500000  0.500000  0.000000  1.0
  Cl  Cl4  1  0.000000  0.000000  0.500000  1.0
