# generated using pymatgen
data_TaO3
_symmetry_space_group_name_H-M   'P 1'
_cell_length_a   6.85004797
_cell_length_b   6.85004936
_cell_length_c   6.85004841
_cell_angle_alpha   109.47121741
_cell_angle_beta   109.47122943
_cell_angle_gamma   109.47122667
_symmetry_Int_Tables_number   1
_chemical_formula_structural   TaO3
_chemical_formula_sum   'Ta4 O12'
_cell_volume   247.43378665
_cell_formula_units_Z   4
loop_
 _symmetry_equiv_pos_site_id
 _symmetry_equiv_pos_as_xyz
  1  'x, y, z'
loop_
 _atom_site_type_symbol
 _atom_site_label
 _atom_site_symmetry_multiplicity
 _atom_site_fract_x
 _atom_site_fract_y
 _atom_site_fract_z
 _atom_site_occupancy
  Ta  Ta1  1  0.000000  0.500000  0.000000  1.0
  Ta  Ta2  1  0.000000  0.000000  0.500000  1.0
  Ta  Ta3  1  0.500000  0.500000  0.500000  1.0
  Ta  Ta4  1  0.500000  0.000000  0.000000  1.0
  O  O5  1  0.244082  0.988385  0.744302  1.0
  O  O6  1  0.011615  0.255698  0.755918  1.0
  O  O7  1  0.244082  0.499779  0.255698  1.0
  O  O8  1  0.255698  0.755918  0.011615  1.0
  O  O9  1  0.500221  0.744302  0.755918  1.0
  O  O10  1  0.255698  0.244082  0.499779  1.0
  O  O11  1  0.744302  0.755918  0.500221  1.0
  O  O12  1  0.499779  0.255698  0.244082  1.0
  O  O13  1  0.744302  0.244082  0.988385  1.0
  O  O14  1  0.755918  0.500221  0.744302  1.0
  O  O15  1  0.988385  0.744302  0.244082  1.0
  O  O16  1  0.755918  0.011615  0.255698  1.0
