# generated using pymatgen
data_Mg(ScSe2)2
_symmetry_space_group_name_H-M   'P 1'
_cell_length_a   7.93752019
_cell_length_b   7.93752019
_cell_length_c   7.93752019
_cell_angle_alpha   60.00000000
_cell_angle_beta   60.00000000
_cell_angle_gamma   60.00000000
_symmetry_Int_Tables_number   1
_chemical_formula_structural   Mg(ScSe2)2
_chemical_formula_sum   'Mg2 Sc4 Se8'
_cell_volume   353.62220765
_cell_formula_units_Z   2
loop_
 _symmetry_equiv_pos_site_id
 _symmetry_equiv_pos_as_xyz
  1  'x, y, z'
loop_
 _atom_site_type_symbol
 _atom_site_label
 _atom_site_symmetry_multiplicity
 _atom_site_fract_x
 _atom_site_fract_y
 _atom_site_fract_z
 _atom_site_occupancy
  Mg  Mg1  1  0.375000  0.375000  0.375000  1.0
  Mg  Mg2  1  0.625000  0.625000  0.625000  1.0
  Sc  Sc3  1  0.000000  0.000000  0.500000  1.0
  Sc  Sc4  1  0.000000  0.500000  0.000000  1.0
  Sc  Sc5  1  0.500000  0.000000  0.000000  1.0
  Sc  Sc6  1  0.000000  0.000000  0.000000  1.0
  Se  Se7  1  0.242144  0.242144  0.773567  1.0
  Se  Se8  1  0.242144  0.773567  0.242144  1.0
  Se  Se9  1  0.773567  0.242144  0.242144  1.0
  Se  Se10  1  0.242144  0.242144  0.242144  1.0
  Se  Se11  1  0.757856  0.757856  0.226433  1.0
  Se  Se12  1  0.757856  0.226433  0.757856  1.0
  Se  Se13  1  0.226433  0.757856  0.757856  1.0
  Se  Se14  1  0.757856  0.757856  0.757856  1.0
