# generated using pymatgen
data_Na2HfN2
_symmetry_space_group_name_H-M   'P 1'
_cell_length_a   3.31081274
_cell_length_b   3.31081556
_cell_length_c   8.97651417
_cell_angle_alpha   90.00000299
_cell_angle_beta   90.00009028
_cell_angle_gamma   120.00000910
_symmetry_Int_Tables_number   1
_chemical_formula_structural   Na2HfN2
_chemical_formula_sum   'Na2 Hf1 N2'
_cell_volume   85.21340471
_cell_formula_units_Z   1
loop_
 _symmetry_equiv_pos_site_id
 _symmetry_equiv_pos_as_xyz
  1  'x, y, z'
loop_
 _atom_site_type_symbol
 _atom_site_label
 _atom_site_symmetry_multiplicity
 _atom_site_fract_x
 _atom_site_fract_y
 _atom_site_fract_z
 _atom_site_occupancy
  Na  Na1  1  0.666668  0.333334  0.291724  1.0
  Na  Na2  1  0.333332  0.666666  0.708276  1.0
  Hf  Hf3  1  0.000000  0.000000  0.000000  1.0
  N  N4  1  0.666665  0.333333  0.872616  1.0
  N  N5  1  0.333335  0.666667  0.127384  1.0
