# generated using pymatgen
data_Lu3Al
_symmetry_space_group_name_H-M   'P 1'
_cell_length_a   6.65197315
_cell_length_b   6.65197241
_cell_length_c   5.26755481
_cell_angle_alpha   90.00000000
_cell_angle_beta   90.00000000
_cell_angle_gamma   119.99999866
_symmetry_Int_Tables_number   1
_chemical_formula_structural   Lu3Al
_chemical_formula_sum   'Lu6 Al2'
_cell_volume   201.85551877
_cell_formula_units_Z   2
loop_
 _symmetry_equiv_pos_site_id
 _symmetry_equiv_pos_as_xyz
  1  'x, y, z'
loop_
 _atom_site_type_symbol
 _atom_site_label
 _atom_site_symmetry_multiplicity
 _atom_site_fract_x
 _atom_site_fract_y
 _atom_site_fract_z
 _atom_site_occupancy
  Lu  Lu1  1  0.828063  0.171936  0.750001  1.0
  Lu  Lu2  1  0.343873  0.171936  0.750001  1.0
  Lu  Lu3  1  0.828063  0.656127  0.750001  1.0
  Lu  Lu4  1  0.171936  0.828063  0.250001  1.0
  Lu  Lu5  1  0.656127  0.828063  0.250001  1.0
  Lu  Lu6  1  0.171936  0.343872  0.250001  1.0
  Al  Al7  1  0.666667  0.333332  0.250001  1.0
  Al  Al8  1  0.333333  0.666667  0.750001  1.0
