# generated using pymatgen
data_Na2ZrN2
_symmetry_space_group_name_H-M   'P 1'
_cell_length_a   3.35728546
_cell_length_b   3.35728751
_cell_length_c   8.88551957
_cell_angle_alpha   90.00000180
_cell_angle_beta   90.00004060
_cell_angle_gamma   120.00001582
_symmetry_Int_Tables_number   1
_chemical_formula_structural   Na2ZrN2
_chemical_formula_sum   'Na2 Zr1 N2'
_cell_volume   86.73416354
_cell_formula_units_Z   1
loop_
 _symmetry_equiv_pos_site_id
 _symmetry_equiv_pos_as_xyz
  1  'x, y, z'
loop_
 _atom_site_type_symbol
 _atom_site_label
 _atom_site_symmetry_multiplicity
 _atom_site_fract_x
 _atom_site_fract_y
 _atom_site_fract_z
 _atom_site_occupancy
  Na  Na1  1  0.666668  0.333334  0.293268  1.0
  Na  Na2  1  0.333332  0.666666  0.706732  1.0
  Zr  Zr3  1  0.000000  0.000000  0.000000  1.0
  N  N4  1  0.666666  0.333333  0.868626  1.0
  N  N5  1  0.333334  0.666667  0.131374  1.0
