# generated using pymatgen
data_LiMnO2
_symmetry_space_group_name_H-M   'P 1'
_cell_length_a   2.86393214
_cell_length_b   5.14633731
_cell_length_c   5.20848351
_cell_angle_alpha   89.99444099
_cell_angle_beta   89.99999998
_cell_angle_gamma   89.99995656
_symmetry_Int_Tables_number   1
_chemical_formula_structural   LiMnO2
_chemical_formula_sum   'Li2 Mn2 O4'
_cell_volume   76.76659236
_cell_formula_units_Z   2
loop_
 _symmetry_equiv_pos_site_id
 _symmetry_equiv_pos_as_xyz
  1  'x, y, z'
loop_
 _atom_site_type_symbol
 _atom_site_label
 _atom_site_symmetry_multiplicity
 _atom_site_fract_x
 _atom_site_fract_y
 _atom_site_fract_z
 _atom_site_occupancy
  Li  Li1  1  0.499999  0.000008  0.500015  1.0
  Li  Li2  1  0.000001  0.499997  0.999992  1.0
  Mn  Mn3  1  0.500002  0.500006  0.499983  1.0
  Mn  Mn4  1  0.999999  0.999998  0.000030  1.0
  O  O5  1  0.000002  0.287635  0.348308  1.0
  O  O6  1  0.499999  0.212369  0.848307  1.0
  O  O7  1  0.000001  0.712364  0.651695  1.0
  O  O8  1  0.500000  0.787626  0.151719  1.0
