# generated using pymatgen
data_LiCrN2
_symmetry_space_group_name_H-M   'P 1'
_cell_length_a   4.61415668
_cell_length_b   4.61415668
_cell_length_c   8.44320709
_cell_angle_alpha   90.00000000
_cell_angle_beta   90.00000000
_cell_angle_gamma   90.00000000
_symmetry_Int_Tables_number   1
_chemical_formula_structural   LiCrN2
_chemical_formula_sum   'Li4 Cr4 N8'
_cell_volume   179.75960973
_cell_formula_units_Z   4
loop_
 _symmetry_equiv_pos_site_id
 _symmetry_equiv_pos_as_xyz
  1  'x, y, z'
loop_
 _atom_site_type_symbol
 _atom_site_label
 _atom_site_symmetry_multiplicity
 _atom_site_fract_x
 _atom_site_fract_y
 _atom_site_fract_z
 _atom_site_occupancy
  Li  Li1  1  0.000000  0.500000  0.750000  1.0
  Li  Li2  1  0.500000  0.500000  0.000000  1.0
  Li  Li3  1  0.500000  0.000000  0.250000  1.0
  Li  Li4  1  0.000000  0.000000  0.500000  1.0
  Cr  Cr5  1  0.500000  0.000000  0.750000  1.0
  Cr  Cr6  1  0.500000  0.500000  0.500000  1.0
  Cr  Cr7  1  0.000000  0.500000  0.250000  1.0
  Cr  Cr8  1  0.000000  0.000000  0.000000  1.0
  N  N9  1  0.750000  0.187467  0.875000  1.0
  N  N10  1  0.250000  0.812533  0.875000  1.0
  N  N11  1  0.312533  0.250000  0.625000  1.0
  N  N12  1  0.687467  0.750000  0.625000  1.0
  N  N13  1  0.250000  0.687467  0.375000  1.0
  N  N14  1  0.750000  0.312533  0.375000  1.0
  N  N15  1  0.812533  0.750000  0.125000  1.0
  N  N16  1  0.187467  0.250000  0.125000  1.0
