# generated using pymatgen
data_NaCrN2
_symmetry_space_group_name_H-M   'P 1'
_cell_length_a   5.11099883
_cell_length_b   5.11099883
_cell_length_c   8.32265863
_cell_angle_alpha   90.00000000
_cell_angle_beta   90.00000000
_cell_angle_gamma   90.00000000
_symmetry_Int_Tables_number   1
_chemical_formula_structural   NaCrN2
_chemical_formula_sum   'Na4 Cr4 N8'
_cell_volume   217.40706077
_cell_formula_units_Z   4
loop_
 _symmetry_equiv_pos_site_id
 _symmetry_equiv_pos_as_xyz
  1  'x, y, z'
loop_
 _atom_site_type_symbol
 _atom_site_label
 _atom_site_symmetry_multiplicity
 _atom_site_fract_x
 _atom_site_fract_y
 _atom_site_fract_z
 _atom_site_occupancy
  Na  Na1  1  0.000000  0.500000  0.750000  1.0
  Na  Na2  1  0.000000  0.000000  0.500000  1.0
  Na  Na3  1  0.500000  0.000000  0.250000  1.0
  Na  Na4  1  0.500000  0.500000  0.000000  1.0
  Cr  Cr5  1  0.500000  0.000000  0.750000  1.0
  Cr  Cr6  1  0.500000  0.500000  0.500000  1.0
  Cr  Cr7  1  0.000000  0.500000  0.250000  1.0
  Cr  Cr8  1  0.000000  0.000000  0.000000  1.0
  N  N9  1  0.750000  0.133376  0.875000  1.0
  N  N10  1  0.250000  0.866624  0.875000  1.0
  N  N11  1  0.366624  0.250000  0.625000  1.0
  N  N12  1  0.633376  0.750000  0.625000  1.0
  N  N13  1  0.250000  0.633376  0.375000  1.0
  N  N14  1  0.750000  0.366624  0.375000  1.0
  N  N15  1  0.866624  0.750000  0.125000  1.0
  N  N16  1  0.133376  0.250000  0.125000  1.0
