# generated using pymatgen
data_BC5
_symmetry_space_group_name_H-M   'P 1'
_cell_length_a   2.55155527
_cell_length_b   2.55154777
_cell_length_c   6.39965655
_cell_angle_alpha   90.00000003
_cell_angle_beta   90.00321123
_cell_angle_gamma   119.99989956
_symmetry_Int_Tables_number   1
_chemical_formula_structural   BC5
_chemical_formula_sum   'B1 C5'
_cell_volume   36.08248348
_cell_formula_units_Z   1
loop_
 _symmetry_equiv_pos_site_id
 _symmetry_equiv_pos_as_xyz
  1  'x, y, z'
loop_
 _atom_site_type_symbol
 _atom_site_label
 _atom_site_symmetry_multiplicity
 _atom_site_fract_x
 _atom_site_fract_y
 _atom_site_fract_z
 _atom_site_occupancy
  B  B1  1  0.000028  0.000014  0.007586  1.0
  C  C2  1  0.000004  0.000002  0.259511  1.0
  C  C3  1  0.333369  0.666684  0.339033  1.0
  C  C4  1  0.666683  0.333342  0.664563  1.0
  C  C5  1  0.333316  0.666658  0.581364  1.0
  C  C6  1  0.666600  0.333300  0.898942  1.0
