# generated using pymatgen
data_Ba(CoN)2
_symmetry_space_group_name_H-M   'P 1'
_cell_length_a   6.27733225
_cell_length_b   6.08807450
_cell_length_c   9.13730354
_cell_angle_alpha   89.99999611
_cell_angle_beta   43.29760021
_cell_angle_gamma   60.99242102
_symmetry_Int_Tables_number   1
_chemical_formula_structural   Ba(CoN)2
_chemical_formula_sum   'Ba2 Co4 N4'
_cell_volume   169.33546406
_cell_formula_units_Z   2
loop_
 _symmetry_equiv_pos_site_id
 _symmetry_equiv_pos_as_xyz
  1  'x, y, z'
loop_
 _atom_site_type_symbol
 _atom_site_label
 _atom_site_symmetry_multiplicity
 _atom_site_fract_x
 _atom_site_fract_y
 _atom_site_fract_z
 _atom_site_occupancy
  Ba  Ba1  1  0.000000  0.000000  0.250000  1.0
  Ba  Ba2  1  0.000000  0.000000  0.750000  1.0
  Co  Co3  1  0.735255  0.500000  0.632372  1.0
  Co  Co4  1  0.264745  0.500000  0.367628  1.0
  Co  Co5  1  0.264745  0.235255  0.867628  1.0
  Co  Co6  1  0.735255  0.764745  0.132372  1.0
  N  N7  1  0.672543  0.500000  0.163728  1.0
  N  N8  1  0.327457  0.500000  0.836272  1.0
  N  N9  1  0.327457  0.172543  0.336272  1.0
  N  N10  1  0.672543  0.827457  0.663728  1.0
