# generated using pymatgen
data_Ca2CrN3
_symmetry_space_group_name_H-M   'P 1'
_cell_length_a   5.90884665
_cell_length_b   10.46232114
_cell_length_c   11.65821400
_cell_angle_alpha   90.00000000
_cell_angle_beta   90.00000000
_cell_angle_gamma   27.71031785
_symmetry_Int_Tables_number   1
_chemical_formula_structural   Ca2CrN3
_chemical_formula_sum   'Ca8 Cr4 N12'
_cell_volume   335.13294584
_cell_formula_units_Z   4
loop_
 _symmetry_equiv_pos_site_id
 _symmetry_equiv_pos_as_xyz
  1  'x, y, z'
loop_
 _atom_site_type_symbol
 _atom_site_label
 _atom_site_symmetry_multiplicity
 _atom_site_fract_x
 _atom_site_fract_y
 _atom_site_fract_z
 _atom_site_occupancy
  Ca  Ca1  1  0.000000  0.450165  0.641637  1.0
  Ca  Ca2  1  0.000000  0.549835  0.358363  1.0
  Ca  Ca3  1  0.000000  0.049835  0.141637  1.0
  Ca  Ca4  1  0.000000  0.950165  0.858363  1.0
  Ca  Ca5  1  0.000000  0.141831  0.579676  1.0
  Ca  Ca6  1  0.000000  0.858169  0.420324  1.0
  Ca  Ca7  1  0.000000  0.358169  0.079676  1.0
  Ca  Ca8  1  0.000000  0.641831  0.920324  1.0
  Cr  Cr9  1  0.000000  0.255048  0.839429  1.0
  Cr  Cr10  1  0.000000  0.744952  0.160571  1.0
  Cr  Cr11  1  0.000000  0.244952  0.339429  1.0
  Cr  Cr12  1  0.000000  0.755048  0.660571  1.0
  N  N13  1  0.000000  0.155622  0.962769  1.0
  N  N14  1  0.000000  0.844378  0.037231  1.0
  N  N15  1  0.000000  0.344378  0.462769  1.0
  N  N16  1  0.000000  0.655622  0.537231  1.0
  N  N17  1  0.000000  0.418740  0.867026  1.0
  N  N18  1  0.000000  0.581260  0.132974  1.0
  N  N19  1  0.000000  0.081260  0.367026  1.0
  N  N20  1  0.000000  0.918740  0.632974  1.0
  N  N21  1  0.500000  0.462168  0.750000  1.0
  N  N22  1  0.500000  0.037832  0.250000  1.0
  N  N23  1  0.500000  0.537832  0.250000  1.0
  N  N24  1  0.500000  0.962168  0.750000  1.0
