# generated using pymatgen
data_Na2CoP2O7
_symmetry_space_group_name_H-M   'P 1'
_cell_length_a   5.26115015
_cell_length_b   8.90408340
_cell_length_c   13.69978615
_cell_angle_alpha   90.00000000
_cell_angle_beta   90.00000000
_cell_angle_gamma   91.50790801
_symmetry_Int_Tables_number   1
_chemical_formula_structural   Na2CoP2O7
_chemical_formula_sum   'Na8 Co4 P8 O28'
_cell_volume   641.55409660
_cell_formula_units_Z   4
loop_
 _symmetry_equiv_pos_site_id
 _symmetry_equiv_pos_as_xyz
  1  'x, y, z'
loop_
 _atom_site_type_symbol
 _atom_site_label
 _atom_site_symmetry_multiplicity
 _atom_site_fract_x
 _atom_site_fract_y
 _atom_site_fract_z
 _atom_site_occupancy
  Na  Na1  1  0.265457  0.856486  0.704131  1.0
  Na  Na2  1  0.765457  0.356486  0.795869  1.0
  Na  Na3  1  0.734543  0.143514  0.295869  1.0
  Na  Na4  1  0.234543  0.643514  0.204131  1.0
  Na  Na5  1  0.292958  0.364412  0.392631  1.0
  Na  Na6  1  0.792958  0.864412  0.107369  1.0
  Na  Na7  1  0.707042  0.635588  0.607369  1.0
  Na  Na8  1  0.207042  0.135588  0.892631  1.0
  Co  Co9  1  0.299203  0.262028  0.667914  1.0
  Co  Co10  1  0.799203  0.762028  0.832086  1.0
  Co  Co11  1  0.700797  0.737972  0.332086  1.0
  Co  Co12  1  0.200797  0.237972  0.167914  1.0
  P  P13  1  0.298464  0.766568  0.959108  1.0
  P  P14  1  0.798464  0.266568  0.540892  1.0
  P  P15  1  0.701536  0.233432  0.040892  1.0
  P  P16  1  0.201536  0.733432  0.459108  1.0
  P  P17  1  0.264086  0.547673  0.810374  1.0
  P  P18  1  0.764086  0.047673  0.689626  1.0
  P  P19  1  0.735914  0.452327  0.189626  1.0
  P  P20  1  0.235914  0.952327  0.310374  1.0
  O  O21  1  0.998358  0.588169  0.771901  1.0
  O  O22  1  0.498358  0.088169  0.728099  1.0
  O  O23  1  0.001642  0.411831  0.228099  1.0
  O  O24  1  0.501642  0.911831  0.271901  1.0
  O  O25  1  0.481649  0.640555  0.764386  1.0
  O  O26  1  0.981649  0.140555  0.735614  1.0
  O  O27  1  0.518351  0.359445  0.235614  1.0
  O  O28  1  0.018351  0.859445  0.264386  1.0
  O  O29  1  0.585208  0.806815  0.947567  1.0
  O  O30  1  0.085208  0.306815  0.552433  1.0
  O  O31  1  0.414792  0.193185  0.052433  1.0
  O  O32  1  0.914792  0.693185  0.447567  1.0
  O  O33  1  0.137372  0.855700  0.884671  1.0
  O  O34  1  0.637372  0.355700  0.615329  1.0
  O  O35  1  0.862628  0.144300  0.115329  1.0
  O  O36  1  0.362628  0.644300  0.384671  1.0
  O  O37  1  0.206336  0.774774  0.062649  1.0
  O  O38  1  0.706336  0.274774  0.437351  1.0
  O  O39  1  0.793664  0.225226  0.937351  1.0
  O  O40  1  0.293664  0.725226  0.562649  1.0
  O  O41  1  0.301709  0.377462  0.801886  1.0
  O  O42  1  0.801709  0.877462  0.698114  1.0
  O  O43  1  0.698291  0.622538  0.198114  1.0
  O  O44  1  0.198291  0.122538  0.301886  1.0
  O  O45  1  0.265144  0.587580  0.926112  1.0
  O  O46  1  0.765144  0.087580  0.573888  1.0
  O  O47  1  0.734856  0.412420  0.073888  1.0
  O  O48  1  0.234856  0.912420  0.426112  1.0
