# generated using pymatgen
data_Na5OsN4
_symmetry_space_group_name_H-M   'P 1'
_cell_length_a   7.74286648
_cell_length_b   7.30470476
_cell_length_c   5.75477410
_cell_angle_alpha   90.00000000
_cell_angle_beta   90.00000000
_cell_angle_gamma   90.00000000
_symmetry_Int_Tables_number   1
_chemical_formula_structural   Na5OsN4
_chemical_formula_sum   'Na10 Os2 N8'
_cell_volume   325.48630340
_cell_formula_units_Z   2
loop_
 _symmetry_equiv_pos_site_id
 _symmetry_equiv_pos_as_xyz
  1  'x, y, z'
loop_
 _atom_site_type_symbol
 _atom_site_label
 _atom_site_symmetry_multiplicity
 _atom_site_fract_x
 _atom_site_fract_y
 _atom_site_fract_z
 _atom_site_occupancy
  Na  Na1  1  0.560465  0.487476  0.237809  1.0
  Na  Na2  1  0.939535  0.487476  0.237809  1.0
  Na  Na3  1  0.560465  0.012524  0.237809  1.0
  Na  Na4  1  0.939535  0.012524  0.237809  1.0
  Na  Na5  1  0.439535  0.512524  0.762191  1.0
  Na  Na6  1  0.060465  0.512524  0.762191  1.0
  Na  Na7  1  0.439535  0.987476  0.762191  1.0
  Na  Na8  1  0.060465  0.987476  0.762191  1.0
  Na  Na9  1  0.750000  0.750000  0.666616  1.0
  Na  Na10  1  0.250000  0.250000  0.333384  1.0
  Os  Os11  1  0.750000  0.250000  0.713450  1.0
  Os  Os12  1  0.250000  0.750000  0.286550  1.0
  N  N13  1  0.750000  0.041307  0.893908  1.0
  N  N14  1  0.750000  0.458693  0.893908  1.0
  N  N15  1  0.250000  0.958693  0.106092  1.0
  N  N16  1  0.250000  0.541307  0.106092  1.0
  N  N17  1  0.448124  0.750000  0.465433  1.0
  N  N18  1  0.051876  0.750000  0.465433  1.0
  N  N19  1  0.551876  0.250000  0.534567  1.0
  N  N20  1  0.948124  0.250000  0.534567  1.0
