# generated using pymatgen
data_CaAl2SiO6
_symmetry_space_group_name_H-M   'P 1'
_cell_length_a   9.74980642
_cell_length_b   8.75132774
_cell_length_c   5.33435022
_cell_angle_alpha   90.00000000
_cell_angle_beta   106.46645654
_cell_angle_gamma   90.00000000
_symmetry_Int_Tables_number   1
_chemical_formula_structural   CaAl2SiO6
_chemical_formula_sum   'Ca4 Al8 Si4 O24'
_cell_volume   436.47931197
_cell_formula_units_Z   4
loop_
 _symmetry_equiv_pos_site_id
 _symmetry_equiv_pos_as_xyz
  1  'x, y, z'
loop_
 _atom_site_type_symbol
 _atom_site_label
 _atom_site_symmetry_multiplicity
 _atom_site_fract_x
 _atom_site_fract_y
 _atom_site_fract_z
 _atom_site_occupancy
  Ca  Ca1  1  0.000000  0.313254  0.250000  1.0
  Ca  Ca2  1  0.500000  0.807984  0.250000  1.0
  Ca  Ca3  1  0.000000  0.692016  0.750000  1.0
  Ca  Ca4  1  0.500000  0.186746  0.750000  1.0
  Al  Al5  1  0.783695  0.596279  0.209754  1.0
  Al  Al6  1  0.216305  0.596279  0.290246  1.0
  Al  Al7  1  0.716305  0.903721  0.790246  1.0
  Al  Al8  1  0.283695  0.903721  0.709754  1.0
  Al  Al9  1  0.000000  0.902814  0.250000  1.0
  Al  Al10  1  0.500000  0.410821  0.250000  1.0
  Al  Al11  1  0.000000  0.089179  0.750000  1.0
  Al  Al12  1  0.500000  0.597186  0.750000  1.0
  Si  Si13  1  0.292163  0.097885  0.215855  1.0
  Si  Si14  1  0.707837  0.097885  0.284145  1.0
  Si  Si15  1  0.207837  0.402115  0.784145  1.0
  Si  Si16  1  0.792163  0.402115  0.715855  1.0
  O  O17  1  0.114206  0.092362  0.126801  1.0
  O  O18  1  0.367821  0.262674  0.312085  1.0
  O  O19  1  0.354205  0.025226  0.986397  1.0
  O  O20  1  0.595941  0.572942  0.113558  1.0
  O  O21  1  0.866874  0.769714  0.312734  1.0
  O  O22  1  0.855590  0.513144  0.973098  1.0
  O  O23  1  0.885794  0.092362  0.373199  1.0
  O  O24  1  0.632179  0.262674  0.187915  1.0
  O  O25  1  0.645795  0.025226  0.513603  1.0
  O  O26  1  0.404059  0.572942  0.386442  1.0
  O  O27  1  0.133126  0.769714  0.187266  1.0
  O  O28  1  0.144410  0.513144  0.526902  1.0
  O  O29  1  0.904059  0.927058  0.886442  1.0
  O  O30  1  0.633126  0.730286  0.687266  1.0
  O  O31  1  0.644410  0.986856  0.026902  1.0
  O  O32  1  0.385794  0.407638  0.873199  1.0
  O  O33  1  0.132179  0.237326  0.687915  1.0
  O  O34  1  0.145795  0.474774  0.013603  1.0
  O  O35  1  0.095941  0.927058  0.613558  1.0
  O  O36  1  0.366874  0.730286  0.812734  1.0
  O  O37  1  0.355590  0.986856  0.473098  1.0
  O  O38  1  0.614206  0.407638  0.626801  1.0
  O  O39  1  0.867821  0.237326  0.812085  1.0
  O  O40  1  0.854205  0.474774  0.486397  1.0
