# generated using pymatgen
data_Cs4ZnO3
_symmetry_space_group_name_H-M   'P 1'
_cell_length_a   7.27659739
_cell_length_b   19.21464316
_cell_length_c   7.15247549
_cell_angle_alpha   90.00000000
_cell_angle_beta   116.17470750
_cell_angle_gamma   90.00000000
_symmetry_Int_Tables_number   1
_chemical_formula_structural   Cs4ZnO3
_chemical_formula_sum   'Cs16 Zn4 O12'
_cell_volume   897.48840928
_cell_formula_units_Z   4
loop_
 _symmetry_equiv_pos_site_id
 _symmetry_equiv_pos_as_xyz
  1  'x, y, z'
loop_
 _atom_site_type_symbol
 _atom_site_label
 _atom_site_symmetry_multiplicity
 _atom_site_fract_x
 _atom_site_fract_y
 _atom_site_fract_z
 _atom_site_occupancy
  Cs  Cs1  1  0.149722  0.924067  0.650172  1.0
  Cs  Cs2  1  0.850278  0.424067  0.849828  1.0
  Cs  Cs3  1  0.850278  0.075933  0.349828  1.0
  Cs  Cs4  1  0.149722  0.575933  0.150172  1.0
  Cs  Cs5  1  0.216679  0.306553  0.674590  1.0
  Cs  Cs6  1  0.783321  0.806553  0.825410  1.0
  Cs  Cs7  1  0.783321  0.693447  0.325410  1.0
  Cs  Cs8  1  0.216679  0.193447  0.174590  1.0
  Cs  Cs9  1  0.290093  0.499414  0.708782  1.0
  Cs  Cs10  1  0.709907  0.999414  0.791218  1.0
  Cs  Cs11  1  0.709907  0.500586  0.291218  1.0
  Cs  Cs12  1  0.290093  0.000586  0.208782  1.0
  Cs  Cs13  1  0.666714  0.193604  0.717066  1.0
  Cs  Cs14  1  0.333286  0.693604  0.782934  1.0
  Cs  Cs15  1  0.333286  0.806396  0.282934  1.0
  Cs  Cs16  1  0.666714  0.306396  0.217066  1.0
  Zn  Zn17  1  0.286355  0.116974  0.787805  1.0
  Zn  Zn18  1  0.713645  0.616974  0.712195  1.0
  Zn  Zn19  1  0.713645  0.883026  0.212195  1.0
  Zn  Zn20  1  0.286355  0.383026  0.287805  1.0
  O  O21  1  0.039512  0.092592  0.811037  1.0
  O  O22  1  0.960488  0.592592  0.688963  1.0
  O  O23  1  0.960488  0.907408  0.188963  1.0
  O  O24  1  0.039512  0.407408  0.311037  1.0
  O  O25  1  0.309703  0.098023  0.533273  1.0
  O  O26  1  0.690297  0.598023  0.966727  1.0
  O  O27  1  0.690297  0.901977  0.466727  1.0
  O  O28  1  0.309703  0.401977  0.033273  1.0
  O  O29  1  0.505841  0.334672  0.515500  1.0
  O  O30  1  0.494159  0.834672  0.984500  1.0
  O  O31  1  0.494159  0.665328  0.484500  1.0
  O  O32  1  0.505841  0.165328  0.015500  1.0
