# generated using pymatgen
data_Sr4Fe4O11
_symmetry_space_group_name_H-M   'P 1'
_cell_length_a   22.27758211
_cell_length_b   9.64724183
_cell_length_c   5.59350437
_cell_angle_alpha   54.56327847
_cell_angle_beta   59.85669755
_cell_angle_gamma   29.99211730
_symmetry_Int_Tables_number   1
_chemical_formula_structural   Sr4Fe4O11
_chemical_formula_sum   'Sr8 Fe8 O22'
_cell_volume   489.60907346
_cell_formula_units_Z   2
loop_
 _symmetry_equiv_pos_site_id
 _symmetry_equiv_pos_as_xyz
  1  'x, y, z'
loop_
 _atom_site_type_symbol
 _atom_site_label
 _atom_site_symmetry_multiplicity
 _atom_site_fract_x
 _atom_site_fract_y
 _atom_site_fract_z
 _atom_site_occupancy
  Sr  Sr1  1  0.997207  0.247145  0.250542  1.0
  Sr  Sr2  1  0.252793  0.252855  0.249458  1.0
  Sr  Sr3  1  0.252793  0.735972  0.766342  1.0
  Sr  Sr4  1  0.497207  0.264028  0.249458  1.0
  Sr  Sr5  1  0.497207  0.747145  0.766342  1.0
  Sr  Sr6  1  0.752793  0.235972  0.250542  1.0
  Sr  Sr7  1  0.752793  0.752855  0.733658  1.0
  Sr  Sr8  1  0.997207  0.764028  0.733658  1.0
  Fe  Fe9  1  0.002967  0.994065  0.997541  1.0
  Fe  Fe10  1  0.991529  0.516942  0.519773  1.0
  Fe  Fe11  1  0.247033  0.505935  0.502459  1.0
  Fe  Fe12  1  0.258471  0.983058  0.980227  1.0
  Fe  Fe13  1  0.502967  0.494065  0.502459  1.0
  Fe  Fe14  1  0.491529  0.016942  0.980227  1.0
  Fe  Fe15  1  0.758471  0.483058  0.519773  1.0
  Fe  Fe16  1  0.747033  0.005935  0.997541  1.0
  O  O17  1  0.012144  0.714040  0.241889  1.0
  O  O18  1  0.125000  0.250000  0.750000  1.0
  O  O19  1  0.237856  0.262617  0.781454  1.0
  O  O20  1  0.125000  0.750000  0.250000  1.0
  O  O21  1  0.382282  0.235437  0.262419  1.0
  O  O22  1  0.125000  0.750000  0.750000  1.0
  O  O23  1  0.369638  0.260725  0.748622  1.0
  O  O24  1  0.237856  0.785960  0.258111  1.0
  O  O25  1  0.512144  0.214040  0.781454  1.0
  O  O26  1  0.367718  0.764563  0.262419  1.0
  O  O27  1  0.380362  0.739275  0.748622  1.0
  O  O28  1  0.625000  0.250000  0.250000  1.0
  O  O29  1  0.625000  0.250000  0.750000  1.0
  O  O30  1  0.512144  0.737383  0.258111  1.0
  O  O31  1  0.737856  0.285960  0.718546  1.0
  O  O32  1  0.867718  0.264563  0.237581  1.0
  O  O33  1  0.625000  0.750000  0.750000  1.0
  O  O34  1  0.880362  0.239275  0.751378  1.0
  O  O35  1  0.737856  0.762617  0.241889  1.0
  O  O36  1  0.882282  0.735437  0.237581  1.0
  O  O37  1  0.012144  0.237383  0.718546  1.0
  O  O38  1  0.869638  0.760725  0.751378  1.0
