# generated using pymatgen
data_Al2O3
_symmetry_space_group_name_H-M   'P 1'
_cell_length_a   2.94094966
_cell_length_b   5.67051513
_cell_length_c   6.14151150
_cell_angle_alpha   103.61344192
_cell_angle_beta   103.85302330
_cell_angle_gamma   89.99999996
_symmetry_Int_Tables_number   1
_chemical_formula_structural   Al2O3
_chemical_formula_sum   'Al4 O6'
_cell_volume   96.47483653
_cell_formula_units_Z   2
loop_
 _symmetry_equiv_pos_site_id
 _symmetry_equiv_pos_as_xyz
  1  'x, y, z'
loop_
 _atom_site_type_symbol
 _atom_site_label
 _atom_site_symmetry_multiplicity
 _atom_site_fract_x
 _atom_site_fract_y
 _atom_site_fract_z
 _atom_site_occupancy
  Al  Al1  1  0.909879  0.204389  0.819757  1.0
  Al  Al2  1  0.090121  0.795611  0.180243  1.0
  Al  Al3  1  0.657850  0.316777  0.315699  1.0
  Al  Al4  1  0.342150  0.683223  0.684301  1.0
  O  O5  1  0.839794  0.891047  0.679589  1.0
  O  O6  1  0.160206  0.108953  0.320411  1.0
  O  O7  1  0.504979  0.742558  0.009959  1.0
  O  O8  1  0.495021  0.257442  0.990041  1.0
  O  O9  1  0.173605  0.567412  0.347210  1.0
  O  O10  1  0.826395  0.432588  0.652790  1.0
