# generated using pymatgen
data_LiFeF4
_symmetry_space_group_name_H-M   'P 1'
_cell_length_a   4.93803692
_cell_length_b   4.93803692
_cell_length_c   6.67619706
_cell_angle_alpha   68.29523154
_cell_angle_beta   68.29523154
_cell_angle_gamma   90.00000000
_symmetry_Int_Tables_number   1
_chemical_formula_structural   LiFeF4
_chemical_formula_sum   'Li2 Fe2 F8'
_cell_volume   138.75343834
_cell_formula_units_Z   2
loop_
 _symmetry_equiv_pos_site_id
 _symmetry_equiv_pos_as_xyz
  1  'x, y, z'
loop_
 _atom_site_type_symbol
 _atom_site_label
 _atom_site_symmetry_multiplicity
 _atom_site_fract_x
 _atom_site_fract_y
 _atom_site_fract_z
 _atom_site_occupancy
  Li  Li1  1  0.375000  0.125000  0.750000  1.0
  Li  Li2  1  0.625000  0.875000  0.250000  1.0
  Fe  Fe3  1  0.125000  0.375000  0.250000  1.0
  Fe  Fe4  1  0.875000  0.625000  0.750000  1.0
  F  F5  1  0.455443  0.214920  0.111317  1.0
  F  F6  1  0.173763  0.955443  0.611317  1.0
  F  F7  1  0.714920  0.433240  0.611317  1.0
  F  F8  1  0.933240  0.673763  0.111317  1.0
  F  F9  1  0.066760  0.326237  0.888683  1.0
  F  F10  1  0.285080  0.566760  0.388683  1.0
  F  F11  1  0.826237  0.044557  0.388683  1.0
  F  F12  1  0.544557  0.785080  0.888683  1.0
