# generated using pymatgen
data_Zn13Rh
_symmetry_space_group_name_H-M   'P 1'
_cell_length_a   5.15244871
_cell_length_b   6.67815995
_cell_length_c   6.67815995
_cell_angle_alpha   69.40819554
_cell_angle_beta   80.39565135
_cell_angle_gamma   80.39565148
_symmetry_Int_Tables_number   1
_chemical_formula_structural   Zn13Rh
_chemical_formula_sum   'Zn13 Rh1'
_cell_volume   210.63035250
_cell_formula_units_Z   1
loop_
 _symmetry_equiv_pos_site_id
 _symmetry_equiv_pos_as_xyz
  1  'x, y, z'
loop_
 _atom_site_type_symbol
 _atom_site_label
 _atom_site_symmetry_multiplicity
 _atom_site_fract_x
 _atom_site_fract_y
 _atom_site_fract_z
 _atom_site_occupancy
  Zn  Zn1  1  0.000000  0.000000  0.000000  1.0
  Zn  Zn2  1  0.679289  0.381609  0.778483  1.0
  Zn  Zn3  1  0.320711  0.221517  0.618391  1.0
  Zn  Zn4  1  0.320711  0.618391  0.221517  1.0
  Zn  Zn5  1  0.679289  0.778483  0.381609  1.0
  Zn  Zn6  1  0.802184  0.638617  0.002731  1.0
  Zn  Zn7  1  0.197816  0.997269  0.361383  1.0
  Zn  Zn8  1  0.197816  0.361383  0.997269  1.0
  Zn  Zn9  1  0.802184  0.002731  0.638617  1.0
  Zn  Zn10  1  0.630582  0.223942  0.223942  1.0
  Zn  Zn11  1  0.369418  0.776058  0.776058  1.0
  Zn  Zn12  1  0.928669  0.387534  0.387534  1.0
  Zn  Zn13  1  0.071331  0.612466  0.612466  1.0
  Rh  Rh14  1  0.500000  0.000000  0.000000  1.0
