# generated using pymatgen
data_NiP3
_symmetry_space_group_name_H-M   'P 1'
_cell_length_a   6.77587982
_cell_length_b   6.77587982
_cell_length_c   6.77587982
_cell_angle_alpha   109.47122065
_cell_angle_beta   109.47122066
_cell_angle_gamma   109.47122060
_symmetry_Int_Tables_number   1
_chemical_formula_structural   NiP3
_chemical_formula_sum   'Ni4 P12'
_cell_volume   239.48327735
_cell_formula_units_Z   4
loop_
 _symmetry_equiv_pos_site_id
 _symmetry_equiv_pos_as_xyz
  1  'x, y, z'
loop_
 _atom_site_type_symbol
 _atom_site_label
 _atom_site_symmetry_multiplicity
 _atom_site_fract_x
 _atom_site_fract_y
 _atom_site_fract_z
 _atom_site_occupancy
  Ni  Ni1  1  0.500000  0.000000  0.000000  1.0
  Ni  Ni2  1  0.000000  0.000000  0.500000  1.0
  Ni  Ni3  1  0.000000  0.500000  0.000000  1.0
  Ni  Ni4  1  0.500000  0.500000  0.500000  1.0
  P  P5  1  0.500906  0.856981  0.643925  1.0
  P  P6  1  0.213056  0.856981  0.356075  1.0
  P  P7  1  0.786944  0.143019  0.643925  1.0
  P  P8  1  0.143019  0.356075  0.499094  1.0
  P  P9  1  0.499094  0.143019  0.356075  1.0
  P  P10  1  0.143019  0.643925  0.786944  1.0
  P  P11  1  0.356075  0.213056  0.856981  1.0
  P  P12  1  0.856981  0.643925  0.500906  1.0
  P  P13  1  0.643925  0.786944  0.143019  1.0
  P  P14  1  0.856981  0.356075  0.213056  1.0
  P  P15  1  0.643925  0.500906  0.856981  1.0
  P  P16  1  0.356075  0.499094  0.143019  1.0
