# generated using pymatgen
data_BePd2
_symmetry_space_group_name_H-M   'P 1'
_cell_length_a   2.77355477
_cell_length_b   2.77355477
_cell_length_c   5.33792848
_cell_angle_alpha   105.05801248
_cell_angle_beta   105.05801247
_cell_angle_gamma   90.00000000
_symmetry_Int_Tables_number   1
_chemical_formula_structural   BePd2
_chemical_formula_sum   'Be1 Pd2'
_cell_volume   38.19065340
_cell_formula_units_Z   1
loop_
 _symmetry_equiv_pos_site_id
 _symmetry_equiv_pos_as_xyz
  1  'x, y, z'
loop_
 _atom_site_type_symbol
 _atom_site_label
 _atom_site_symmetry_multiplicity
 _atom_site_fract_x
 _atom_site_fract_y
 _atom_site_fract_z
 _atom_site_occupancy
  Be  Be1  1  0.000000  0.000000  0.000000  1.0
  Pd  Pd2  1  0.356659  0.356659  0.713318  1.0
  Pd  Pd3  1  0.643341  0.643341  0.286682  1.0
