# generated using pymatgen
data_Pr2CuO4
_symmetry_space_group_name_H-M   'P 1'
_cell_length_a   5.28090519
_cell_length_b   5.58346518
_cell_length_c   6.99267596
_cell_angle_alpha   90.00000000
_cell_angle_beta   112.18526073
_cell_angle_gamma   90.00000000
_symmetry_Int_Tables_number   1
_chemical_formula_structural   Pr2CuO4
_chemical_formula_sum   'Pr4 Cu2 O8'
_cell_volume   190.92001017
_cell_formula_units_Z   2
loop_
 _symmetry_equiv_pos_site_id
 _symmetry_equiv_pos_as_xyz
  1  'x, y, z'
loop_
 _atom_site_type_symbol
 _atom_site_label
 _atom_site_symmetry_multiplicity
 _atom_site_fract_x
 _atom_site_fract_y
 _atom_site_fract_z
 _atom_site_occupancy
  Pr  Pr1  1  0.361330  0.016604  0.722660  1.0
  Pr  Pr2  1  0.638670  0.983396  0.277340  1.0
  Pr  Pr3  1  0.138670  0.516604  0.277340  1.0
  Pr  Pr4  1  0.861330  0.483396  0.722660  1.0
  Cu  Cu5  1  0.000000  0.000000  0.000000  1.0
  Cu  Cu6  1  0.500000  0.500000  0.000000  1.0
  O  O7  1  0.185965  0.931468  0.371931  1.0
  O  O8  1  0.814035  0.068532  0.628069  1.0
  O  O9  1  0.314035  0.431468  0.628069  1.0
  O  O10  1  0.685965  0.568532  0.371931  1.0
  O  O11  1  0.265108  0.250000  0.030216  1.0
  O  O12  1  0.234892  0.750000  0.969784  1.0
  O  O13  1  0.765108  0.250000  0.030216  1.0
  O  O14  1  0.734892  0.750000  0.969784  1.0
