# generated using pymatgen
data_RuC
_symmetry_space_group_name_H-M   'P 1'
_cell_length_a   2.93559173
_cell_length_b   2.93559172
_cell_length_c   2.68282547
_cell_angle_alpha   90.00000000
_cell_angle_beta   90.00000000
_cell_angle_gamma   119.99999995
_symmetry_Int_Tables_number   1
_chemical_formula_structural   RuC
_chemical_formula_sum   'Ru1 C1'
_cell_volume   20.02231835
_cell_formula_units_Z   1
loop_
 _symmetry_equiv_pos_site_id
 _symmetry_equiv_pos_as_xyz
  1  'x, y, z'
loop_
 _atom_site_type_symbol
 _atom_site_label
 _atom_site_symmetry_multiplicity
 _atom_site_fract_x
 _atom_site_fract_y
 _atom_site_fract_z
 _atom_site_occupancy
  Ru  Ru1  1  0.000000  0.000000  0.000000  1.0
  C  C2  1  0.666667  0.333333  0.500000  1.0
