# generated using pymatgen
data_CeSi2Ir3
_symmetry_space_group_name_H-M   'P 1'
_cell_length_a   5.62468561
_cell_length_b   6.69771814
_cell_length_c   6.69771814
_cell_angle_alpha   65.57802803
_cell_angle_beta   65.17199960
_cell_angle_gamma   65.17199957
_symmetry_Int_Tables_number   1
_chemical_formula_structural   CeSi2Ir3
_chemical_formula_sum   'Ce2 Si4 Ir6'
_cell_volume   199.03334083
_cell_formula_units_Z   2
loop_
 _symmetry_equiv_pos_site_id
 _symmetry_equiv_pos_as_xyz
  1  'x, y, z'
loop_
 _atom_site_type_symbol
 _atom_site_label
 _atom_site_symmetry_multiplicity
 _atom_site_fract_x
 _atom_site_fract_y
 _atom_site_fract_z
 _atom_site_occupancy
  Ce  Ce1  1  0.967701  0.750000  0.750000  1.0
  Ce  Ce2  1  0.032299  0.250000  0.250000  1.0
  Si  Si3  1  0.618593  0.580199  0.580199  1.0
  Si  Si4  1  0.721010  0.080199  0.080199  1.0
  Si  Si5  1  0.381407  0.419801  0.419801  1.0
  Si  Si6  1  0.278990  0.919801  0.919801  1.0
  Ir  Ir7  1  0.500000  0.218102  0.781898  1.0
  Ir  Ir8  1  0.500000  0.500000  0.000000  1.0
  Ir  Ir9  1  0.000000  0.281898  0.718102  1.0
  Ir  Ir10  1  0.500000  0.781898  0.218102  1.0
  Ir  Ir11  1  0.000000  0.718102  0.281898  1.0
  Ir  Ir12  1  0.500000  0.000000  0.500000  1.0
