# generated using pymatgen
data_SrAl4
_symmetry_space_group_name_H-M   'P 1'
_cell_length_a   4.46423375
_cell_length_b   4.46423374
_cell_length_c   6.44916137
_cell_angle_alpha   110.24954657
_cell_angle_beta   110.24954650
_cell_angle_gamma   90.00000007
_symmetry_Int_Tables_number   1
_chemical_formula_structural   SrAl4
_chemical_formula_sum   'Sr1 Al4'
_cell_volume   112.07862364
_cell_formula_units_Z   1
loop_
 _symmetry_equiv_pos_site_id
 _symmetry_equiv_pos_as_xyz
  1  'x, y, z'
loop_
 _atom_site_type_symbol
 _atom_site_label
 _atom_site_symmetry_multiplicity
 _atom_site_fract_x
 _atom_site_fract_y
 _atom_site_fract_z
 _atom_site_occupancy
  Sr  Sr1  1  0.000000  0.000000  0.000000  1.0
  Al  Al2  1  0.750000  0.250000  0.500000  1.0
  Al  Al3  1  0.250000  0.750000  0.500000  1.0
  Al  Al4  1  0.383730  0.383730  0.767460  1.0
  Al  Al5  1  0.616270  0.616270  0.232540  1.0
