# generated using pymatgen
data_B
_symmetry_space_group_name_H-M   'P 1'
_cell_length_a   10.12299326
_cell_length_b   10.12299326
_cell_length_c   10.12299325
_cell_angle_alpha   65.24406491
_cell_angle_beta   65.24406491
_cell_angle_gamma   65.24406493
_symmetry_Int_Tables_number   1
_chemical_formula_structural   B
_chemical_formula_sum   B105
_cell_volume   817.33771203
_cell_formula_units_Z   105
loop_
 _symmetry_equiv_pos_site_id
 _symmetry_equiv_pos_as_xyz
  1  'x, y, z'
loop_
 _atom_site_type_symbol
 _atom_site_label
 _atom_site_symmetry_multiplicity
 _atom_site_fract_x
 _atom_site_fract_y
 _atom_site_fract_z
 _atom_site_occupancy
  B  B1  1  0.002603  0.163903  0.002603  1.0
  B  B2  1  0.002603  0.002603  0.163903  1.0
  B  B3  1  0.163903  0.002603  0.002603  1.0
  B  B4  1  0.836097  0.997397  0.997397  1.0
  B  B5  1  0.997397  0.836097  0.997397  1.0
  B  B6  1  0.997397  0.997397  0.836097  1.0
  B  B7  1  0.099510  0.841382  0.099510  1.0
  B  B8  1  0.099510  0.099510  0.841382  1.0
  B  B9  1  0.841382  0.099510  0.099510  1.0
  B  B10  1  0.158618  0.900490  0.900490  1.0
  B  B11  1  0.900490  0.158618  0.900490  1.0
  B  B12  1  0.900490  0.900490  0.158618  1.0
  B  B13  1  0.995099  0.665143  0.995099  1.0
  B  B14  1  0.995099  0.995099  0.665143  1.0
  B  B15  1  0.665143  0.995099  0.995099  1.0
  B  B16  1  0.334857  0.004901  0.004901  1.0
  B  B17  1  0.004901  0.334857  0.004901  1.0
  B  B18  1  0.004901  0.004901  0.334857  1.0
  B  B19  1  0.104167  0.490450  0.104167  1.0
  B  B20  1  0.104167  0.104167  0.490450  1.0
  B  B21  1  0.490450  0.104167  0.104167  1.0
  B  B22  1  0.509550  0.895833  0.895833  1.0
  B  B23  1  0.895833  0.509550  0.895833  1.0
  B  B24  1  0.895833  0.895833  0.509550  1.0
  B  B25  1  0.349664  0.003863  0.173988  1.0
  B  B26  1  0.173988  0.349664  0.003863  1.0
  B  B27  1  0.003863  0.173988  0.349664  1.0
  B  B28  1  0.996137  0.650336  0.826012  1.0
  B  B29  1  0.826012  0.996137  0.650336  1.0
  B  B30  1  0.650336  0.826012  0.996137  1.0
  B  B31  1  0.650336  0.996137  0.826012  1.0
  B  B32  1  0.826012  0.650336  0.996137  1.0
  B  B33  1  0.996137  0.826012  0.650336  1.0
  B  B34  1  0.003863  0.349664  0.173988  1.0
  B  B35  1  0.173988  0.003863  0.349664  1.0
  B  B36  1  0.349664  0.173988  0.003863  1.0
  B  B37  1  0.551013  0.895056  0.165948  1.0
  B  B38  1  0.165948  0.551013  0.895056  1.0
  B  B39  1  0.895056  0.165948  0.551013  1.0
  B  B40  1  0.104944  0.448987  0.834052  1.0
  B  B41  1  0.834052  0.104944  0.448987  1.0
  B  B42  1  0.448987  0.834052  0.104944  1.0
  B  B43  1  0.448987  0.104944  0.834052  1.0
  B  B44  1  0.834052  0.448987  0.104944  1.0
  B  B45  1  0.104944  0.834052  0.448987  1.0
  B  B46  1  0.895056  0.551013  0.165948  1.0
  B  B47  1  0.165948  0.895056  0.551013  1.0
  B  B48  1  0.551013  0.165948  0.895056  1.0
  B  B49  1  0.198904  0.686828  0.198904  1.0
  B  B50  1  0.198904  0.198904  0.686828  1.0
  B  B51  1  0.686828  0.198904  0.198904  1.0
  B  B52  1  0.313172  0.801096  0.801096  1.0
  B  B53  1  0.801096  0.313172  0.801096  1.0
  B  B54  1  0.801096  0.801096  0.313172  1.0
  B  B55  1  0.684099  0.200174  0.375545  1.0
  B  B56  1  0.375545  0.684099  0.200174  1.0
  B  B57  1  0.200174  0.375545  0.684099  1.0
  B  B58  1  0.799826  0.315901  0.624455  1.0
  B  B59  1  0.624455  0.799826  0.315901  1.0
  B  B60  1  0.315901  0.624455  0.799826  1.0
  B  B61  1  0.315901  0.799826  0.624455  1.0
  B  B62  1  0.624455  0.315901  0.799826  1.0
  B  B63  1  0.799826  0.624455  0.315901  1.0
  B  B64  1  0.200174  0.684099  0.375545  1.0
  B  B65  1  0.375545  0.200174  0.684099  1.0
  B  B66  1  0.684099  0.375545  0.200174  1.0
  B  B67  1  0.580363  0.095973  0.363569  1.0
  B  B68  1  0.363569  0.580363  0.095973  1.0
  B  B69  1  0.095973  0.363569  0.580363  1.0
  B  B70  1  0.904027  0.419637  0.636431  1.0
  B  B71  1  0.636431  0.904027  0.419637  1.0
  B  B72  1  0.419637  0.636431  0.904027  1.0
  B  B73  1  0.419637  0.904027  0.636431  1.0
  B  B74  1  0.636431  0.419637  0.904027  1.0
  B  B75  1  0.904027  0.636431  0.419637  1.0
  B  B76  1  0.095973  0.580363  0.363569  1.0
  B  B77  1  0.363569  0.095973  0.580363  1.0
  B  B78  1  0.580363  0.363569  0.095973  1.0
  B  B79  1  0.199172  0.506039  0.199172  1.0
  B  B80  1  0.199172  0.199172  0.506039  1.0
  B  B81  1  0.506039  0.199172  0.199172  1.0
  B  B82  1  0.493961  0.800828  0.800828  1.0
  B  B83  1  0.800828  0.493961  0.800828  1.0
  B  B84  1  0.800828  0.800828  0.493961  1.0
  B  B85  1  0.384427  0.568265  0.384427  1.0
  B  B86  1  0.384427  0.384427  0.568265  1.0
  B  B87  1  0.568265  0.384427  0.384427  1.0
  B  B88  1  0.431735  0.615573  0.615573  1.0
  B  B89  1  0.615573  0.431735  0.615573  1.0
  B  B90  1  0.615573  0.615573  0.431735  1.0
  B  B91  1  0.489318  0.221092  0.489318  1.0
  B  B92  1  0.489318  0.489318  0.221092  1.0
  B  B93  1  0.221092  0.489318  0.489318  1.0
  B  B94  1  0.778908  0.510682  0.510682  1.0
  B  B95  1  0.510682  0.778908  0.510682  1.0
  B  B96  1  0.510682  0.510682  0.778908  1.0
  B  B97  1  0.381579  0.213560  0.381579  1.0
  B  B98  1  0.381579  0.381579  0.213560  1.0
  B  B99  1  0.213560  0.381579  0.381579  1.0
  B  B100  1  0.786440  0.618421  0.618421  1.0
  B  B101  1  0.618421  0.786440  0.618421  1.0
  B  B102  1  0.618421  0.618421  0.786440  1.0
  B  B103  1  0.384809  0.384809  0.384809  1.0
  B  B104  1  0.615191  0.615191  0.615191  1.0
  B  B105  1  0.500000  0.500000  0.500000  1.0
