# generated using pymatgen
data_Tb2Mg
_symmetry_space_group_name_H-M   'P 1'
_cell_length_a   3.66001540
_cell_length_b   3.66001540
_cell_length_c   7.01424419
_cell_angle_alpha   105.12339881
_cell_angle_beta   105.12339880
_cell_angle_gamma   90.00000005
_symmetry_Int_Tables_number   1
_chemical_formula_structural   Tb2Mg
_chemical_formula_sum   'Tb2 Mg1'
_cell_volume   87.33117618
_cell_formula_units_Z   1
loop_
 _symmetry_equiv_pos_site_id
 _symmetry_equiv_pos_as_xyz
  1  'x, y, z'
loop_
 _atom_site_type_symbol
 _atom_site_label
 _atom_site_symmetry_multiplicity
 _atom_site_fract_x
 _atom_site_fract_y
 _atom_site_fract_z
 _atom_site_occupancy
  Tb  Tb1  1  0.659808  0.659808  0.319617  1.0
  Tb  Tb2  1  0.340192  0.340192  0.680383  1.0
  Mg  Mg3  1  0.000000  0.000000  0.000000  1.0
