# generated using pymatgen
data_VCoB3
_symmetry_space_group_name_H-M   'P 1'
_cell_length_a   2.97918061
_cell_length_b   3.01216678
_cell_length_c   8.87394134
_cell_angle_alpha   99.77152707
_cell_angle_beta   90.00000000
_cell_angle_gamma   90.00000000
_symmetry_Int_Tables_number   1
_chemical_formula_structural   VCoB3
_chemical_formula_sum   'V2 Co2 B6'
_cell_volume   78.47759103
_cell_formula_units_Z   2
loop_
 _symmetry_equiv_pos_site_id
 _symmetry_equiv_pos_as_xyz
  1  'x, y, z'
loop_
 _atom_site_type_symbol
 _atom_site_label
 _atom_site_symmetry_multiplicity
 _atom_site_fract_x
 _atom_site_fract_y
 _atom_site_fract_z
 _atom_site_occupancy
  V  V1  1  0.250000  0.074416  0.148833  1.0
  V  V2  1  0.750000  0.925584  0.851167  1.0
  Co  Co3  1  0.250000  0.796160  0.592321  1.0
  Co  Co4  1  0.750000  0.203840  0.407679  1.0
  B  B5  1  0.250000  0.375445  0.750890  1.0
  B  B6  1  0.750000  0.624555  0.249110  1.0
  B  B7  1  0.250000  0.474979  0.949957  1.0
  B  B8  1  0.750000  0.525021  0.050043  1.0
  B  B9  1  0.750000  0.320864  0.641729  1.0
  B  B10  1  0.250000  0.679136  0.358271  1.0
