# generated using pymatgen
data_CdSnSb2
_symmetry_space_group_name_H-M   'P 1'
_cell_length_a   6.64418326
_cell_length_b   6.64418326
_cell_length_c   8.07568106
_cell_angle_alpha   114.29091515
_cell_angle_beta   114.29091509
_cell_angle_gamma   90.00000005
_symmetry_Int_Tables_number   1
_chemical_formula_structural   CdSnSb2
_chemical_formula_sum   'Cd2 Sn2 Sb4'
_cell_volume   289.96368157
_cell_formula_units_Z   2
loop_
 _symmetry_equiv_pos_site_id
 _symmetry_equiv_pos_as_xyz
  1  'x, y, z'
loop_
 _atom_site_type_symbol
 _atom_site_label
 _atom_site_symmetry_multiplicity
 _atom_site_fract_x
 _atom_site_fract_y
 _atom_site_fract_z
 _atom_site_occupancy
  Cd  Cd1  1  0.000000  0.000000  0.000000  1.0
  Cd  Cd2  1  0.250000  0.750000  0.500000  1.0
  Sn  Sn3  1  0.500000  0.500000  0.000000  1.0
  Sn  Sn4  1  0.750000  0.250000  0.500000  1.0
  Sb  Sb5  1  0.372926  0.375000  0.250000  1.0
  Sb  Sb6  1  0.125000  0.627074  0.750000  1.0
  Sb  Sb7  1  0.625000  0.122926  0.750000  1.0
  Sb  Sb8  1  0.877074  0.875000  0.250000  1.0
