# generated using pymatgen
data_CaNiGe2
_symmetry_space_group_name_H-M   'P 1'
_cell_length_a   4.07920548
_cell_length_b   4.23144454
_cell_length_c   8.92398291
_cell_angle_alpha   103.71442479
_cell_angle_beta   90.00000000
_cell_angle_gamma   90.00000000
_symmetry_Int_Tables_number   1
_chemical_formula_structural   CaNiGe2
_chemical_formula_sum   'Ca2 Ni2 Ge4'
_cell_volume   149.64460348
_cell_formula_units_Z   2
loop_
 _symmetry_equiv_pos_site_id
 _symmetry_equiv_pos_as_xyz
  1  'x, y, z'
loop_
 _atom_site_type_symbol
 _atom_site_label
 _atom_site_symmetry_multiplicity
 _atom_site_fract_x
 _atom_site_fract_y
 _atom_site_fract_z
 _atom_site_occupancy
  Ca  Ca1  1  0.250000  0.891348  0.782697  1.0
  Ca  Ca2  1  0.750000  0.108652  0.217303  1.0
  Ni  Ni3  1  0.750000  0.322158  0.644316  1.0
  Ni  Ni4  1  0.250000  0.677842  0.355684  1.0
  Ge  Ge5  1  0.750000  0.750399  0.500797  1.0
  Ge  Ge6  1  0.250000  0.249601  0.499203  1.0
  Ge  Ge7  1  0.250000  0.542984  0.085968  1.0
  Ge  Ge8  1  0.750000  0.457016  0.914032  1.0
