# generated using pymatgen
data_SrNiGe2
_symmetry_space_group_name_H-M   'P 1'
_cell_length_a   4.20605575
_cell_length_b   4.43483123
_cell_length_c   8.95593345
_cell_angle_alpha   104.33505247
_cell_angle_beta   90.00000000
_cell_angle_gamma   90.00000000
_symmetry_Int_Tables_number   1
_chemical_formula_structural   SrNiGe2
_chemical_formula_sum   'Sr2 Ni2 Ge4'
_cell_volume   161.85495393
_cell_formula_units_Z   2
loop_
 _symmetry_equiv_pos_site_id
 _symmetry_equiv_pos_as_xyz
  1  'x, y, z'
loop_
 _atom_site_type_symbol
 _atom_site_label
 _atom_site_symmetry_multiplicity
 _atom_site_fract_x
 _atom_site_fract_y
 _atom_site_fract_z
 _atom_site_occupancy
  Sr  Sr1  1  0.750000  0.107898  0.215796  1.0
  Sr  Sr2  1  0.250000  0.892102  0.784204  1.0
  Ni  Ni3  1  0.750000  0.318684  0.637368  1.0
  Ni  Ni4  1  0.250000  0.681316  0.362632  1.0
  Ge  Ge5  1  0.750000  0.456383  0.912766  1.0
  Ge  Ge6  1  0.250000  0.543617  0.087234  1.0
  Ge  Ge7  1  0.750000  0.749599  0.499199  1.0
  Ge  Ge8  1  0.250000  0.250401  0.500801  1.0
