# generated using pymatgen
data_Hf3(NiGe)4
_symmetry_space_group_name_H-M   'P 1'
_cell_length_a   3.91766150
_cell_length_b   6.52295166
_cell_length_c   7.49205310
_cell_angle_alpha   115.81198605
_cell_angle_beta   105.15638262
_cell_angle_gamma   90.00000004
_symmetry_Int_Tables_number   1
_chemical_formula_structural   Hf3(NiGe)4
_chemical_formula_sum   'Hf3 Ni4 Ge4'
_cell_volume   164.92592667
_cell_formula_units_Z   1
loop_
 _symmetry_equiv_pos_site_id
 _symmetry_equiv_pos_as_xyz
  1  'x, y, z'
loop_
 _atom_site_type_symbol
 _atom_site_label
 _atom_site_symmetry_multiplicity
 _atom_site_fract_x
 _atom_site_fract_y
 _atom_site_fract_z
 _atom_site_occupancy
  Hf  Hf1  1  0.127339  0.127332  0.254678  1.0
  Hf  Hf2  1  0.872661  0.872668  0.745322  1.0
  Hf  Hf3  1  0.000000  0.500000  0.000000  1.0
  Ni  Ni4  1  0.322855  0.122730  0.645710  1.0
  Ni  Ni5  1  0.677145  0.877270  0.354290  1.0
  Ni  Ni6  1  0.322842  0.522991  0.645683  1.0
  Ni  Ni7  1  0.677158  0.477009  0.354317  1.0
  Ge  Ge8  1  0.213359  0.713355  0.426719  1.0
  Ge  Ge9  1  0.500007  0.200317  0.000014  1.0
  Ge  Ge10  1  0.499993  0.799683  0.999986  1.0
  Ge  Ge11  1  0.786641  0.286645  0.573281  1.0
