# generated using pymatgen
data_TbTiGe
_symmetry_space_group_name_H-M   'P 1'
_cell_length_a   4.06486608
_cell_length_b   4.06486607
_cell_length_c   8.28394700
_cell_angle_alpha   104.20228057
_cell_angle_beta   104.20228055
_cell_angle_gamma   89.99999998
_symmetry_Int_Tables_number   1
_chemical_formula_structural   TbTiGe
_chemical_formula_sum   'Tb2 Ti2 Ge2'
_cell_volume   128.37340133
_cell_formula_units_Z   2
loop_
 _symmetry_equiv_pos_site_id
 _symmetry_equiv_pos_as_xyz
  1  'x, y, z'
loop_
 _atom_site_type_symbol
 _atom_site_label
 _atom_site_symmetry_multiplicity
 _atom_site_fract_x
 _atom_site_fract_y
 _atom_site_fract_z
 _atom_site_occupancy
  Tb  Tb1  1  0.674146  0.674146  0.348291  1.0
  Tb  Tb2  1  0.325854  0.325854  0.651709  1.0
  Ti  Ti3  1  0.000000  0.500000  0.000000  1.0
  Ti  Ti4  1  0.500000  0.000000  0.000000  1.0
  Ge  Ge5  1  0.121820  0.121820  0.243640  1.0
  Ge  Ge6  1  0.878180  0.878180  0.756360  1.0
