# generated using pymatgen
data_Na2ZnGe
_symmetry_space_group_name_H-M   'P 1'
_cell_length_a   5.53304072
_cell_length_b   5.93774865
_cell_length_c   5.93774865
_cell_angle_alpha   102.41387818
_cell_angle_beta   90.00000000
_cell_angle_gamma   90.00000000
_symmetry_Int_Tables_number   1
_chemical_formula_structural   Na2ZnGe
_chemical_formula_sum   'Na4 Zn2 Ge2'
_cell_volume   190.51676767
_cell_formula_units_Z   2
loop_
 _symmetry_equiv_pos_site_id
 _symmetry_equiv_pos_as_xyz
  1  'x, y, z'
loop_
 _atom_site_type_symbol
 _atom_site_label
 _atom_site_symmetry_multiplicity
 _atom_site_fract_x
 _atom_site_fract_y
 _atom_site_fract_z
 _atom_site_occupancy
  Na  Na1  1  0.750000  0.034050  0.681587  1.0
  Na  Na2  1  0.250000  0.965950  0.318413  1.0
  Na  Na3  1  0.250000  0.318413  0.965950  1.0
  Na  Na4  1  0.750000  0.681587  0.034050  1.0
  Zn  Zn5  1  0.000000  0.500000  0.500000  1.0
  Zn  Zn6  1  0.500000  0.500000  0.500000  1.0
  Ge  Ge7  1  0.750000  0.228071  0.228071  1.0
  Ge  Ge8  1  0.250000  0.771929  0.771929  1.0
