# generated using pymatgen
data_HoInIr
_symmetry_space_group_name_H-M   'P 1'
_cell_length_a   7.49792912
_cell_length_b   7.49792912
_cell_length_c   3.96194665
_cell_angle_alpha   90.00000000
_cell_angle_beta   90.00000000
_cell_angle_gamma   120.00000001
_symmetry_Int_Tables_number   1
_chemical_formula_structural   HoInIr
_chemical_formula_sum   'Ho3 In3 Ir3'
_cell_volume   192.89541997
_cell_formula_units_Z   3
loop_
 _symmetry_equiv_pos_site_id
 _symmetry_equiv_pos_as_xyz
  1  'x, y, z'
loop_
 _atom_site_type_symbol
 _atom_site_label
 _atom_site_symmetry_multiplicity
 _atom_site_fract_x
 _atom_site_fract_y
 _atom_site_fract_z
 _atom_site_occupancy
  Ho  Ho1  1  0.594826  0.594826  0.000000  1.0
  Ho  Ho2  1  0.405174  0.000000  0.000000  1.0
  Ho  Ho3  1  0.000000  0.405174  0.000000  1.0
  In  In4  1  0.000000  0.742490  0.500000  1.0
  In  In5  1  0.257510  0.257510  0.500000  1.0
  In  In6  1  0.742490  0.000000  0.500000  1.0
  Ir  Ir7  1  0.000000  0.000000  0.000000  1.0
  Ir  Ir8  1  0.666667  0.333333  0.500000  1.0
  Ir  Ir9  1  0.333333  0.666667  0.500000  1.0
