# generated using pymatgen
data_BaTe2
_symmetry_space_group_name_H-M   'P 1'
_cell_length_a   6.86323711
_cell_length_b   6.86323711
_cell_length_c   6.86323712
_cell_angle_alpha   96.42247878
_cell_angle_beta   116.36389114
_cell_angle_gamma   116.36389110
_symmetry_Int_Tables_number   1
_chemical_formula_structural   BaTe2
_chemical_formula_sum   'Ba2 Te4'
_cell_volume   239.53151384
_cell_formula_units_Z   2
loop_
 _symmetry_equiv_pos_site_id
 _symmetry_equiv_pos_as_xyz
  1  'x, y, z'
loop_
 _atom_site_type_symbol
 _atom_site_label
 _atom_site_symmetry_multiplicity
 _atom_site_fract_x
 _atom_site_fract_y
 _atom_site_fract_z
 _atom_site_occupancy
  Ba  Ba1  1  0.000000  0.750000  0.750000  1.0
  Ba  Ba2  1  0.000000  0.250000  0.250000  1.0
  Te  Te3  1  0.223860  0.361930  0.861930  1.0
  Te  Te4  1  0.500000  0.861930  0.638070  1.0
  Te  Te5  1  0.776140  0.638070  0.138070  1.0
  Te  Te6  1  0.500000  0.138070  0.361930  1.0
