# generated using pymatgen
data_Si
_symmetry_space_group_name_H-M   'P 1'
_cell_length_a   10.42209500
_cell_length_b   10.42209500
_cell_length_c   10.42209500
_cell_angle_alpha   59.99999999
_cell_angle_beta   60.00000000
_cell_angle_gamma   59.99999998
_symmetry_Int_Tables_number   1
_chemical_formula_structural   Si
_chemical_formula_sum   Si34
_cell_volume   800.47926123
_cell_formula_units_Z   34
loop_
 _symmetry_equiv_pos_site_id
 _symmetry_equiv_pos_as_xyz
  1  'x, y, z'
loop_
 _atom_site_type_symbol
 _atom_site_label
 _atom_site_symmetry_multiplicity
 _atom_site_fract_x
 _atom_site_fract_y
 _atom_site_fract_z
 _atom_site_occupancy
  Si  Si1  1  0.875000  0.875000  0.875000  1.0
  Si  Si2  1  0.125000  0.125000  0.125000  1.0
  Si  Si3  1  0.764692  0.764692  0.764692  1.0
  Si  Si4  1  0.235308  0.235308  0.794076  1.0
  Si  Si5  1  0.794076  0.235308  0.235308  1.0
  Si  Si6  1  0.235308  0.794076  0.235308  1.0
  Si  Si7  1  0.205924  0.764692  0.764692  1.0
  Si  Si8  1  0.764692  0.205924  0.764692  1.0
  Si  Si9  1  0.764692  0.764692  0.205924  1.0
  Si  Si10  1  0.235308  0.235308  0.235308  1.0
  Si  Si11  1  0.127891  0.127891  0.739402  1.0
  Si  Si12  1  0.872109  0.260598  0.495183  1.0
  Si  Si13  1  0.495183  0.872109  0.872109  1.0
  Si  Si14  1  0.872109  0.495183  0.872109  1.0
  Si  Si15  1  0.260598  0.872109  0.495183  1.0
  Si  Si16  1  0.260598  0.495183  0.872109  1.0
  Si  Si17  1  0.495183  0.260598  0.872109  1.0
  Si  Si18  1  0.739402  0.127891  0.127891  1.0
  Si  Si19  1  0.127891  0.739402  0.127891  1.0
  Si  Si20  1  0.504817  0.127891  0.739402  1.0
  Si  Si21  1  0.127891  0.504817  0.739402  1.0
  Si  Si22  1  0.504817  0.127891  0.127891  1.0
  Si  Si23  1  0.739402  0.127891  0.504817  1.0
  Si  Si24  1  0.127891  0.739402  0.504817  1.0
  Si  Si25  1  0.127891  0.504817  0.127891  1.0
  Si  Si26  1  0.495183  0.872109  0.260598  1.0
  Si  Si27  1  0.872109  0.495183  0.260598  1.0
  Si  Si28  1  0.872109  0.872109  0.495183  1.0
  Si  Si29  1  0.872109  0.872109  0.260598  1.0
  Si  Si30  1  0.260598  0.872109  0.872109  1.0
  Si  Si31  1  0.872109  0.260598  0.872109  1.0
  Si  Si32  1  0.739402  0.504817  0.127891  1.0
  Si  Si33  1  0.504817  0.739402  0.127891  1.0
  Si  Si34  1  0.127891  0.127891  0.504817  1.0
