# generated using pymatgen
data_BaIrF6
_symmetry_space_group_name_H-M   'P 1'
_cell_length_a   5.03696069
_cell_length_b   5.03696068
_cell_length_c   5.03696068
_cell_angle_alpha   98.18718400
_cell_angle_beta   98.18718413
_cell_angle_gamma   98.18718411
_symmetry_Int_Tables_number   1
_chemical_formula_structural   BaIrF6
_chemical_formula_sum   'Ba1 Ir1 F6'
_cell_volume   123.46274216
_cell_formula_units_Z   1
loop_
 _symmetry_equiv_pos_site_id
 _symmetry_equiv_pos_as_xyz
  1  'x, y, z'
loop_
 _atom_site_type_symbol
 _atom_site_label
 _atom_site_symmetry_multiplicity
 _atom_site_fract_x
 _atom_site_fract_y
 _atom_site_fract_z
 _atom_site_occupancy
  Ba  Ba1  1  0.500000  0.500000  0.500000  1.0
  Ir  Ir2  1  0.000000  0.000000  0.000000  1.0
  F  F3  1  0.739626  0.697900  0.070341  1.0
  F  F4  1  0.260374  0.302100  0.929659  1.0
  F  F5  1  0.929659  0.260374  0.302100  1.0
  F  F6  1  0.302100  0.929659  0.260374  1.0
  F  F7  1  0.070341  0.739626  0.697900  1.0
  F  F8  1  0.697900  0.070341  0.739626  1.0
