# generated using pymatgen
data_Mg2Cu
_symmetry_space_group_name_H-M   'P 1'
_cell_length_a   5.22844490
_cell_length_b   5.22844490
_cell_length_c   9.52573516
_cell_angle_alpha   97.93180963
_cell_angle_beta   97.93180961
_cell_angle_gamma   119.81322236
_symmetry_Int_Tables_number   1
_chemical_formula_structural   Mg2Cu
_chemical_formula_sum   'Mg8 Cu4'
_cell_volume   217.21267941
_cell_formula_units_Z   4
loop_
 _symmetry_equiv_pos_site_id
 _symmetry_equiv_pos_as_xyz
  1  'x, y, z'
loop_
 _atom_site_type_symbol
 _atom_site_label
 _atom_site_symmetry_multiplicity
 _atom_site_fract_x
 _atom_site_fract_y
 _atom_site_fract_z
 _atom_site_occupancy
  Mg  Mg1  1  0.458299  0.708299  0.416598  1.0
  Mg  Mg2  1  0.291701  0.541701  0.083402  1.0
  Mg  Mg3  1  0.541701  0.291701  0.583402  1.0
  Mg  Mg4  1  0.708299  0.458299  0.916598  1.0
  Mg  Mg5  1  0.290758  0.709242  0.750000  1.0
  Mg  Mg6  1  0.959242  0.040758  0.750000  1.0
  Mg  Mg7  1  0.709242  0.290758  0.250000  1.0
  Mg  Mg8  1  0.040758  0.959242  0.250000  1.0
  Cu  Cu9  1  0.001682  0.251682  0.503363  1.0
  Cu  Cu10  1  0.748318  0.998318  0.996637  1.0
  Cu  Cu11  1  0.998318  0.748318  0.496637  1.0
  Cu  Cu12  1  0.251682  0.001682  0.003363  1.0
