# generated using pymatgen
data_Ca2As
_symmetry_space_group_name_H-M   'P 1'
_cell_length_a   4.57240479
_cell_length_b   4.57240479
_cell_length_c   8.57127555
_cell_angle_alpha   105.46967845
_cell_angle_beta   105.46967846
_cell_angle_gamma   89.99999993
_symmetry_Int_Tables_number   1
_chemical_formula_structural   Ca2As
_chemical_formula_sum   'Ca4 As2'
_cell_volume   165.96080361
_cell_formula_units_Z   2
loop_
 _symmetry_equiv_pos_site_id
 _symmetry_equiv_pos_as_xyz
  1  'x, y, z'
loop_
 _atom_site_type_symbol
 _atom_site_label
 _atom_site_symmetry_multiplicity
 _atom_site_fract_x
 _atom_site_fract_y
 _atom_site_fract_z
 _atom_site_occupancy
  Ca  Ca1  1  0.500000  0.000000  0.000000  1.0
  Ca  Ca2  1  0.000000  0.500000  0.000000  1.0
  Ca  Ca3  1  0.320784  0.320784  0.641568  1.0
  Ca  Ca4  1  0.679216  0.679216  0.358432  1.0
  As  As5  1  0.134391  0.134391  0.268783  1.0
  As  As6  1  0.865609  0.865609  0.731217  1.0
