# generated using pymatgen
data_Mn3B4
_symmetry_space_group_name_H-M   'P 1'
_cell_length_a   2.95752836
_cell_length_b   2.97325207
_cell_length_c   6.72072117
_cell_angle_alpha   102.77762530
_cell_angle_beta   102.71082917
_cell_angle_gamma   90.00000001
_symmetry_Int_Tables_number   1
_chemical_formula_structural   Mn3B4
_chemical_formula_sum   'Mn3 B4'
_cell_volume   56.14891489
_cell_formula_units_Z   1
loop_
 _symmetry_equiv_pos_site_id
 _symmetry_equiv_pos_as_xyz
  1  'x, y, z'
loop_
 _atom_site_type_symbol
 _atom_site_label
 _atom_site_symmetry_multiplicity
 _atom_site_fract_x
 _atom_site_fract_y
 _atom_site_fract_z
 _atom_site_occupancy
  Mn  Mn1  1  0.186321  0.186312  0.372642  1.0
  Mn  Mn2  1  0.813679  0.813688  0.627358  1.0
  Mn  Mn3  1  0.500000  0.000000  0.000000  1.0
  B  B4  1  0.932814  0.432832  0.865628  1.0
  B  B5  1  0.067186  0.567168  0.134372  1.0
  B  B6  1  0.357455  0.357463  0.714911  1.0
  B  B7  1  0.642545  0.642537  0.285089  1.0
