# generated using pymatgen
data_Cu2SnSe3
_symmetry_space_group_name_H-M   'P 1'
_cell_length_a   7.09560384
_cell_length_b   7.05473202
_cell_length_c   7.05473202
_cell_angle_alpha   119.98053927
_cell_angle_beta   99.68984869
_cell_angle_gamma   99.68984867
_symmetry_Int_Tables_number   1
_chemical_formula_structural   Cu2SnSe3
_chemical_formula_sum   'Cu4 Sn2 Se6'
_cell_volume   288.04881076
_cell_formula_units_Z   2
loop_
 _symmetry_equiv_pos_site_id
 _symmetry_equiv_pos_as_xyz
  1  'x, y, z'
loop_
 _atom_site_type_symbol
 _atom_site_label
 _atom_site_symmetry_multiplicity
 _atom_site_fract_x
 _atom_site_fract_y
 _atom_site_fract_z
 _atom_site_occupancy
  Cu  Cu1  1  0.380353  0.381485  0.887508  1.0
  Cu  Cu2  1  0.880353  0.887508  0.381485  1.0
  Cu  Cu3  1  0.880404  0.202223  0.037767  1.0
  Cu  Cu4  1  0.380404  0.037767  0.202223  1.0
  Sn  Sn5  1  0.897267  0.551624  0.733680  1.0
  Sn  Sn6  1  0.397267  0.733680  0.551624  1.0
  Se  Se7  1  0.995181  0.584304  0.396688  1.0
  Se  Se8  1  0.518538  0.759751  0.236315  1.0
  Se  Se9  1  0.018257  0.949190  0.117464  1.0
  Se  Se10  1  0.495181  0.396688  0.584304  1.0
  Se  Se11  1  0.518257  0.117464  0.949190  1.0
  Se  Se12  1  0.018538  0.236315  0.759751  1.0
