# generated using pymatgen
data_VTe2
_symmetry_space_group_name_H-M   'P 1'
_cell_length_a   3.57558352
_cell_length_b   7.62561953
_cell_length_c   9.36610577
_cell_angle_alpha   111.78635725
_cell_angle_beta   90.00000000
_cell_angle_gamma   103.55893589
_symmetry_Int_Tables_number   1
_chemical_formula_structural   VTe2
_chemical_formula_sum   'V3 Te6'
_cell_volume   229.45349369
_cell_formula_units_Z   3
loop_
 _symmetry_equiv_pos_site_id
 _symmetry_equiv_pos_as_xyz
  1  'x, y, z'
loop_
 _atom_site_type_symbol
 _atom_site_label
 _atom_site_symmetry_multiplicity
 _atom_site_fract_x
 _atom_site_fract_y
 _atom_site_fract_z
 _atom_site_occupancy
  V  V1  1  0.000000  0.000000  0.000000  1.0
  V  V2  1  0.361527  0.723054  0.709142  1.0
  V  V3  1  0.638473  0.276946  0.290858  1.0
  Te  Te4  1  0.356738  0.713476  0.979965  1.0
  Te  Te5  1  0.643262  0.286524  0.020035  1.0
  Te  Te6  1  0.709631  0.419261  0.614616  1.0
  Te  Te7  1  0.290369  0.580739  0.385384  1.0
  Te  Te8  1  0.009625  0.019250  0.301065  1.0
  Te  Te9  1  0.990375  0.980750  0.698935  1.0
