# generated using pymatgen
data_YInNi
_symmetry_space_group_name_H-M   'P 1'
_cell_length_a   7.52197041
_cell_length_b   7.52197026
_cell_length_c   3.76317766
_cell_angle_alpha   90.00000000
_cell_angle_beta   90.00000000
_cell_angle_gamma   120.00000062
_symmetry_Int_Tables_number   1
_chemical_formula_structural   YInNi
_chemical_formula_sum   'Y3 In3 Ni3'
_cell_volume   184.39476344
_cell_formula_units_Z   3
loop_
 _symmetry_equiv_pos_site_id
 _symmetry_equiv_pos_as_xyz
  1  'x, y, z'
loop_
 _atom_site_type_symbol
 _atom_site_label
 _atom_site_symmetry_multiplicity
 _atom_site_fract_x
 _atom_site_fract_y
 _atom_site_fract_z
 _atom_site_occupancy
  Y  Y1  1  0.000000  0.589439  0.500000  1.0
  Y  Y2  1  0.589439  0.000000  0.500000  1.0
  Y  Y3  1  0.410561  0.410561  0.500000  1.0
  In  In4  1  0.000000  0.254414  0.000000  1.0
  In  In5  1  0.254414  0.000000  0.000000  1.0
  In  In6  1  0.745586  0.745586  0.000000  1.0
  Ni  Ni7  1  0.000000  0.000000  0.500000  1.0
  Ni  Ni8  1  0.666667  0.333333  0.000000  1.0
  Ni  Ni9  1  0.333333  0.666667  0.000000  1.0
