# generated using pymatgen
data_B2W
_symmetry_space_group_name_H-M   'P 1'
_cell_length_a   3.02238672
_cell_length_b   3.02238672
_cell_length_c   3.38202932
_cell_angle_alpha   90.00000000
_cell_angle_beta   90.00000000
_cell_angle_gamma   120.00000000
_symmetry_Int_Tables_number   1
_chemical_formula_structural   B2W
_chemical_formula_sum   'B2 W1'
_cell_volume   26.75519156
_cell_formula_units_Z   1
loop_
 _symmetry_equiv_pos_site_id
 _symmetry_equiv_pos_as_xyz
  1  'x, y, z'
loop_
 _atom_site_type_symbol
 _atom_site_label
 _atom_site_symmetry_multiplicity
 _atom_site_fract_x
 _atom_site_fract_y
 _atom_site_fract_z
 _atom_site_occupancy
  B  B1  1  0.666667  0.333333  0.500000  1.0
  B  B2  1  0.333333  0.666667  0.500000  1.0
  W  W3  1  0.000000  0.000000  0.000000  1.0
