# generated using pymatgen
data_CaZnGe
_symmetry_space_group_name_H-M   'P 1'
_cell_length_a   4.31788026
_cell_length_b   4.31788026
_cell_length_c   8.23724936
_cell_angle_alpha   90.00000000
_cell_angle_beta   90.00000000
_cell_angle_gamma   119.99999997
_symmetry_Int_Tables_number   1
_chemical_formula_structural   CaZnGe
_chemical_formula_sum   'Ca2 Zn2 Ge2'
_cell_volume   133.00073297
_cell_formula_units_Z   2
loop_
 _symmetry_equiv_pos_site_id
 _symmetry_equiv_pos_as_xyz
  1  'x, y, z'
loop_
 _atom_site_type_symbol
 _atom_site_label
 _atom_site_symmetry_multiplicity
 _atom_site_fract_x
 _atom_site_fract_y
 _atom_site_fract_z
 _atom_site_occupancy
  Ca  Ca1  1  0.000000  0.000000  0.000000  1.0
  Ca  Ca2  1  0.000000  0.000000  0.500000  1.0
  Zn  Zn3  1  0.333333  0.666667  0.250000  1.0
  Zn  Zn4  1  0.666667  0.333333  0.750000  1.0
  Ge  Ge5  1  0.333333  0.666667  0.750000  1.0
  Ge  Ge6  1  0.666667  0.333333  0.250000  1.0
