# generated using pymatgen
data_Cs2AgF4
_symmetry_space_group_name_H-M   'P 1'
_cell_length_a   4.57306796
_cell_length_b   4.57306796
_cell_length_c   8.03854568
_cell_angle_alpha   106.52574967
_cell_angle_beta   106.52574971
_cell_angle_gamma   89.99999997
_symmetry_Int_Tables_number   1
_chemical_formula_structural   Cs2AgF4
_chemical_formula_sum   'Cs2 Ag1 F4'
_cell_volume   153.90815089
_cell_formula_units_Z   1
loop_
 _symmetry_equiv_pos_site_id
 _symmetry_equiv_pos_as_xyz
  1  'x, y, z'
loop_
 _atom_site_type_symbol
 _atom_site_label
 _atom_site_symmetry_multiplicity
 _atom_site_fract_x
 _atom_site_fract_y
 _atom_site_fract_z
 _atom_site_occupancy
  Cs  Cs1  1  0.356262  0.356262  0.712523  1.0
  Cs  Cs2  1  0.643738  0.643738  0.287477  1.0
  Ag  Ag3  1  0.000000  0.000000  0.000000  1.0
  F  F4  1  0.000000  0.500000  0.000000  1.0
  F  F5  1  0.500000  0.000000  0.000000  1.0
  F  F6  1  0.850099  0.850099  0.700198  1.0
  F  F7  1  0.149901  0.149901  0.299802  1.0
