# generated using pymatgen
data_Tc2P3
_symmetry_space_group_name_H-M   'P 1'
_cell_length_a   3.11468294
_cell_length_b   6.39718881
_cell_length_c   7.75845334
_cell_angle_alpha   78.78412921
_cell_angle_beta   78.42044631
_cell_angle_gamma   75.91024796
_symmetry_Int_Tables_number   1
_chemical_formula_structural   Tc2P3
_chemical_formula_sum   'Tc4 P6'
_cell_volume   145.15070294
_cell_formula_units_Z   2
loop_
 _symmetry_equiv_pos_site_id
 _symmetry_equiv_pos_as_xyz
  1  'x, y, z'
loop_
 _atom_site_type_symbol
 _atom_site_label
 _atom_site_symmetry_multiplicity
 _atom_site_fract_x
 _atom_site_fract_y
 _atom_site_fract_z
 _atom_site_occupancy
  Tc  Tc1  1  0.365521  0.413518  0.855440  1.0
  Tc  Tc2  1  0.634479  0.586482  0.144560  1.0
  Tc  Tc3  1  0.250071  0.863148  0.636710  1.0
  Tc  Tc4  1  0.749929  0.136852  0.363290  1.0
  P  P5  1  0.097743  0.433111  0.371402  1.0
  P  P6  1  0.902257  0.566889  0.628598  1.0
  P  P7  1  0.411347  0.855242  0.322063  1.0
  P  P8  1  0.588653  0.144758  0.677937  1.0
  P  P9  1  0.889642  0.180568  0.040148  1.0
  P  P10  1  0.110358  0.819431  0.959852  1.0
