# generated using pymatgen
data_TaSb2
_symmetry_space_group_name_H-M   'P 1'
_cell_length_a   3.69243658
_cell_length_b   5.49406973
_cell_length_c   7.52604344
_cell_angle_alpha   78.54036054
_cell_angle_beta   75.79980962
_cell_angle_gamma   70.36430635
_symmetry_Int_Tables_number   1
_chemical_formula_structural   TaSb2
_chemical_formula_sum   'Ta2 Sb4'
_cell_volume   138.27048210
_cell_formula_units_Z   2
loop_
 _symmetry_equiv_pos_site_id
 _symmetry_equiv_pos_as_xyz
  1  'x, y, z'
loop_
 _atom_site_type_symbol
 _atom_site_label
 _atom_site_symmetry_multiplicity
 _atom_site_fract_x
 _atom_site_fract_y
 _atom_site_fract_z
 _atom_site_occupancy
  Ta  Ta1  1  0.849273  0.612850  0.688603  1.0
  Ta  Ta2  1  0.150727  0.387150  0.311397  1.0
  Sb  Sb3  1  0.148411  0.737956  0.965221  1.0
  Sb  Sb4  1  0.851589  0.262044  0.034779  1.0
  Sb  Sb5  1  0.405239  0.801989  0.387532  1.0
  Sb  Sb6  1  0.594761  0.198011  0.612468  1.0
