# generated using pymatgen
data_Dy2Fe2Si2C
_symmetry_space_group_name_H-M   'P 1'
_cell_length_a   3.92258839
_cell_length_b   5.62642224
_cell_length_c   5.64113012
_cell_angle_alpha   73.25790294
_cell_angle_beta   69.65467166
_cell_angle_gamma   69.59912136
_symmetry_Int_Tables_number   1
_chemical_formula_structural   Dy2Fe2Si2C
_chemical_formula_sum   'Dy2 Fe2 Si2 C1'
_cell_volume   107.42102028
_cell_formula_units_Z   1
loop_
 _symmetry_equiv_pos_site_id
 _symmetry_equiv_pos_as_xyz
  1  'x, y, z'
loop_
 _atom_site_type_symbol
 _atom_site_label
 _atom_site_symmetry_multiplicity
 _atom_site_fract_x
 _atom_site_fract_y
 _atom_site_fract_z
 _atom_site_occupancy
  Dy  Dy1  1  0.059054  0.675516  0.206377  1.0
  Dy  Dy2  1  0.940946  0.324484  0.793623  1.0
  Fe  Fe3  1  0.298918  0.806709  0.595457  1.0
  Fe  Fe4  1  0.701082  0.193291  0.404543  1.0
  Si  Si5  1  0.662143  0.892617  0.783096  1.0
  Si  Si6  1  0.337857  0.107383  0.216904  1.0
  C  C7  1  0.500000  0.500000  0.500000  1.0
