# generated using pymatgen
data_PdF3
_symmetry_space_group_name_H-M   'P 1'
_cell_length_a   5.61752274
_cell_length_b   5.61752274
_cell_length_c   5.61752274
_cell_angle_alpha   54.95624922
_cell_angle_beta   54.95624918
_cell_angle_gamma   54.95624925
_symmetry_Int_Tables_number   1
_chemical_formula_structural   PdF3
_chemical_formula_sum   'Pd2 F6'
_cell_volume   110.63595758
_cell_formula_units_Z   2
loop_
 _symmetry_equiv_pos_site_id
 _symmetry_equiv_pos_as_xyz
  1  'x, y, z'
loop_
 _atom_site_type_symbol
 _atom_site_label
 _atom_site_symmetry_multiplicity
 _atom_site_fract_x
 _atom_site_fract_y
 _atom_site_fract_z
 _atom_site_occupancy
  Pd  Pd1  1  0.500000  0.500000  0.500000  1.0
  Pd  Pd2  1  0.000000  0.000000  0.000000  1.0
  F  F3  1  0.750000  0.107983  0.392017  1.0
  F  F4  1  0.107983  0.392017  0.750000  1.0
  F  F5  1  0.607983  0.250000  0.892017  1.0
  F  F6  1  0.892017  0.607983  0.250000  1.0
  F  F7  1  0.250000  0.892017  0.607983  1.0
  F  F8  1  0.392017  0.750000  0.107983  1.0
