# generated using pymatgen
data_NbSe2
_symmetry_space_group_name_H-M   'P 1'
_cell_length_a   7.25321117
_cell_length_b   7.25321117
_cell_length_c   7.25321117
_cell_angle_alpha   27.85374646
_cell_angle_beta   27.85374643
_cell_angle_gamma   27.85374641
_symmetry_Int_Tables_number   1
_chemical_formula_structural   NbSe2
_chemical_formula_sum   'Nb1 Se2'
_cell_volume   73.55604925
_cell_formula_units_Z   1
loop_
 _symmetry_equiv_pos_site_id
 _symmetry_equiv_pos_as_xyz
  1  'x, y, z'
loop_
 _atom_site_type_symbol
 _atom_site_label
 _atom_site_symmetry_multiplicity
 _atom_site_fract_x
 _atom_site_fract_y
 _atom_site_fract_z
 _atom_site_occupancy
  Nb  Nb1  1  0.332526  0.332526  0.332526  1.0
  Se  Se2  1  0.585291  0.585291  0.585291  1.0
  Se  Se3  1  0.746516  0.746516  0.746516  1.0
