# generated using pymatgen
data_Ba2ZnF6
_symmetry_space_group_name_H-M   'P 1'
_cell_length_a   4.20041467
_cell_length_b   4.20041466
_cell_length_c   8.69258867
_cell_angle_alpha   103.98152208
_cell_angle_beta   103.98152203
_cell_angle_gamma   90.00000007
_symmetry_Int_Tables_number   1
_chemical_formula_structural   Ba2ZnF6
_chemical_formula_sum   'Ba2 Zn1 F6'
_cell_volume   144.13695351
_cell_formula_units_Z   1
loop_
 _symmetry_equiv_pos_site_id
 _symmetry_equiv_pos_as_xyz
  1  'x, y, z'
loop_
 _atom_site_type_symbol
 _atom_site_label
 _atom_site_symmetry_multiplicity
 _atom_site_fract_x
 _atom_site_fract_y
 _atom_site_fract_z
 _atom_site_occupancy
  Ba  Ba1  1  0.848186  0.848186  0.696372  1.0
  Ba  Ba2  1  0.151814  0.151814  0.303628  1.0
  Zn  Zn3  1  0.500000  0.500000  0.000000  1.0
  F  F4  1  0.620636  0.620636  0.241272  1.0
  F  F5  1  0.379364  0.379364  0.758728  1.0
  F  F6  1  0.000000  0.500000  0.000000  1.0
  F  F7  1  0.750000  0.250000  0.500000  1.0
  F  F8  1  0.250000  0.750000  0.500000  1.0
  F  F9  1  0.500000  0.000000  0.000000  1.0
