# generated using pymatgen
data_ZrSiO4
_symmetry_space_group_name_H-M   'P 1'
_cell_length_a   4.78615270
_cell_length_b   4.78616352
_cell_length_c   6.31314271
_cell_angle_alpha   112.27611500
_cell_angle_beta   112.27567870
_cell_angle_gamma   89.99755393
_symmetry_Int_Tables_number   1
_chemical_formula_structural   ZrSiO4
_chemical_formula_sum   'Zr2 Si2 O8'
_cell_volume   122.08192864
_cell_formula_units_Z   2
loop_
 _symmetry_equiv_pos_site_id
 _symmetry_equiv_pos_as_xyz
  1  'x, y, z'
loop_
 _atom_site_type_symbol
 _atom_site_label
 _atom_site_symmetry_multiplicity
 _atom_site_fract_x
 _atom_site_fract_y
 _atom_site_fract_z
 _atom_site_occupancy
  Zr  Zr1  1  0.375005  0.125005  0.750005  1.0
  Zr  Zr2  1  0.624995  0.874995  0.249995  1.0
  Si  Si3  1  0.875002  0.624998  0.749996  1.0
  Si  Si4  1  0.124998  0.375002  0.250004  1.0
  O  O5  1  0.306140  0.454966  0.095408  1.0
  O  O6  1  0.640433  0.806139  0.595401  1.0
  O  O7  1  0.954956  0.289249  0.595402  1.0
  O  O8  1  0.789271  0.140434  0.095412  1.0
  O  O9  1  0.210729  0.859566  0.904588  1.0
  O  O10  1  0.045044  0.710751  0.404598  1.0
  O  O11  1  0.359567  0.193861  0.404599  1.0
  O  O12  1  0.693860  0.545034  0.904592  1.0
