# generated using pymatgen
data_RbTiS2
_symmetry_space_group_name_H-M   'P 1'
_cell_length_a   7.93654332
_cell_length_b   7.93654332
_cell_length_c   7.93654331
_cell_angle_alpha   26.84819086
_cell_angle_beta   26.84819079
_cell_angle_gamma   26.84819084
_symmetry_Int_Tables_number   1
_chemical_formula_structural   RbTiS2
_chemical_formula_sum   'Rb1 Ti1 S2'
_cell_volume   89.91961626
_cell_formula_units_Z   1
loop_
 _symmetry_equiv_pos_site_id
 _symmetry_equiv_pos_as_xyz
  1  'x, y, z'
loop_
 _atom_site_type_symbol
 _atom_site_label
 _atom_site_symmetry_multiplicity
 _atom_site_fract_x
 _atom_site_fract_y
 _atom_site_fract_z
 _atom_site_occupancy
  Rb  Rb1  1  0.818024  0.818024  0.818024  1.0
  Ti  Ti2  1  0.986851  0.986851  0.986851  1.0
  S  S3  1  0.593690  0.593690  0.593690  1.0
  S  S4  1  0.379435  0.379435  0.379435  1.0
