# generated using pymatgen
data_Ti5Se4
_symmetry_space_group_name_H-M   'P 1'
_cell_length_a   3.49239176
_cell_length_b   7.10113804
_cell_length_c   7.10113804
_cell_angle_alpha   86.53328881
_cell_angle_beta   75.76475609
_cell_angle_gamma   75.76475616
_symmetry_Int_Tables_number   1
_chemical_formula_structural   Ti5Se4
_chemical_formula_sum   'Ti5 Se4'
_cell_volume   165.45890966
_cell_formula_units_Z   1
loop_
 _symmetry_equiv_pos_site_id
 _symmetry_equiv_pos_as_xyz
  1  'x, y, z'
loop_
 _atom_site_type_symbol
 _atom_site_label
 _atom_site_symmetry_multiplicity
 _atom_site_fract_x
 _atom_site_fract_y
 _atom_site_fract_z
 _atom_site_occupancy
  Ti  Ti1  1  0.000000  0.000000  0.000000  1.0
  Ti  Ti2  1  0.306649  0.065844  0.320858  1.0
  Ti  Ti3  1  0.627507  0.679142  0.065844  1.0
  Ti  Ti4  1  0.372493  0.320858  0.934156  1.0
  Ti  Ti5  1  0.693351  0.934156  0.679142  1.0
  Se  Se6  1  0.057917  0.214197  0.669968  1.0
  Se  Se7  1  0.727885  0.330032  0.214197  1.0
  Se  Se8  1  0.272115  0.669968  0.785803  1.0
  Se  Se9  1  0.942083  0.785803  0.330032  1.0
