# generated using pymatgen
data_LiC
_symmetry_space_group_name_H-M   'P 1'
_cell_length_a   3.62839274
_cell_length_b   4.05428395
_cell_length_c   4.05428395
_cell_angle_alpha   73.47112955
_cell_angle_beta   63.41811295
_cell_angle_gamma   63.41811289
_symmetry_Int_Tables_number   1
_chemical_formula_structural   LiC
_chemical_formula_sum   'Li2 C2'
_cell_volume   47.43304034
_cell_formula_units_Z   2
loop_
 _symmetry_equiv_pos_site_id
 _symmetry_equiv_pos_as_xyz
  1  'x, y, z'
loop_
 _atom_site_type_symbol
 _atom_site_label
 _atom_site_symmetry_multiplicity
 _atom_site_fract_x
 _atom_site_fract_y
 _atom_site_fract_z
 _atom_site_occupancy
  Li  Li1  1  0.761713  0.738287  0.738287  1.0
  Li  Li2  1  0.238287  0.261713  0.261713  1.0
  C  C3  1  0.000000  0.870119  0.129881  1.0
  C  C4  1  0.000000  0.129881  0.870119  1.0
