# generated using pymatgen
data_Zn3Ru
_symmetry_space_group_name_H-M   'P 1'
_cell_length_a   3.79406781
_cell_length_b   3.79406781
_cell_length_c   8.24546599
_cell_angle_alpha   103.30118964
_cell_angle_beta   103.30118963
_cell_angle_gamma   90.00000005
_symmetry_Int_Tables_number   1
_chemical_formula_structural   Zn3Ru
_chemical_formula_sum   'Zn6 Ru2'
_cell_volume   112.23468332
_cell_formula_units_Z   2
loop_
 _symmetry_equiv_pos_site_id
 _symmetry_equiv_pos_as_xyz
  1  'x, y, z'
loop_
 _atom_site_type_symbol
 _atom_site_label
 _atom_site_symmetry_multiplicity
 _atom_site_fract_x
 _atom_site_fract_y
 _atom_site_fract_z
 _atom_site_occupancy
  Zn  Zn1  1  0.628974  0.628974  0.257947  1.0
  Zn  Zn2  1  0.371026  0.371026  0.742053  1.0
  Zn  Zn3  1  0.500000  0.000000  0.000000  1.0
  Zn  Zn4  1  0.000000  0.500000  0.000000  1.0
  Zn  Zn5  1  0.750000  0.250000  0.500000  1.0
  Zn  Zn6  1  0.250000  0.750000  0.500000  1.0
  Ru  Ru7  1  0.882941  0.882941  0.765881  1.0
  Ru  Ru8  1  0.117059  0.117059  0.234119  1.0
