# generated using pymatgen
data_NaVS2
_symmetry_space_group_name_H-M   'P 1'
_cell_length_a   6.97969368
_cell_length_b   6.97969368
_cell_length_c   6.97969368
_cell_angle_alpha   29.64885445
_cell_angle_beta   29.64885445
_cell_angle_gamma   29.64885442
_symmetry_Int_Tables_number   1
_chemical_formula_structural   NaVS2
_chemical_formula_sum   'Na1 V1 S2'
_cell_volume   73.66568053
_cell_formula_units_Z   1
loop_
 _symmetry_equiv_pos_site_id
 _symmetry_equiv_pos_as_xyz
  1  'x, y, z'
loop_
 _atom_site_type_symbol
 _atom_site_label
 _atom_site_symmetry_multiplicity
 _atom_site_fract_x
 _atom_site_fract_y
 _atom_site_fract_z
 _atom_site_occupancy
  Na  Na1  1  0.833788  0.833788  0.833788  1.0
  V  V2  1  0.002243  0.002243  0.002243  1.0
  S  S3  1  0.402275  0.402275  0.402275  1.0
  S  S4  1  0.601694  0.601694  0.601694  1.0
