# generated using pymatgen
data_AlCu
_symmetry_space_group_name_H-M   'P 1'
_cell_length_a   4.09576981
_cell_length_b   6.37770316
_cell_length_c   6.37716401
_cell_angle_alpha   65.71651147
_cell_angle_beta   71.26885449
_cell_angle_gamma   71.27049680
_symmetry_Int_Tables_number   1
_chemical_formula_structural   AlCu
_chemical_formula_sum   'Al5 Cu5'
_cell_volume   140.31041951
_cell_formula_units_Z   5
loop_
 _symmetry_equiv_pos_site_id
 _symmetry_equiv_pos_as_xyz
  1  'x, y, z'
loop_
 _atom_site_type_symbol
 _atom_site_label
 _atom_site_symmetry_multiplicity
 _atom_site_fract_x
 _atom_site_fract_y
 _atom_site_fract_z
 _atom_site_occupancy
  Al  Al1  1  0.500000  0.500000  0.500000  1.0
  Al  Al2  1  0.843780  0.461431  0.851008  1.0
  Al  Al3  1  0.156220  0.538569  0.148992  1.0
  Al  Al4  1  0.621769  0.995725  0.760737  1.0
  Al  Al5  1  0.378231  0.004275  0.239263  1.0
  Cu  Cu6  1  0.000000  0.000000  0.000000  1.0
  Cu  Cu7  1  0.742053  0.240584  0.275310  1.0
  Cu  Cu8  1  0.257947  0.759416  0.724690  1.0
  Cu  Cu9  1  0.891048  0.771862  0.446041  1.0
  Cu  Cu10  1  0.108952  0.228138  0.553959  1.0
