# generated using pymatgen
data_Zr3(CuSi)4
_symmetry_space_group_name_H-M   'P 1'
_cell_length_a   3.94587771
_cell_length_b   6.41620739
_cell_length_c   7.56948611
_cell_angle_alpha   115.07603158
_cell_angle_beta   105.10826230
_cell_angle_gamma   90.00000060
_symmetry_Int_Tables_number   1
_chemical_formula_structural   Zr3(CuSi)4
_chemical_formula_sum   'Zr3 Cu4 Si4'
_cell_volume   166.23582759
_cell_formula_units_Z   1
loop_
 _symmetry_equiv_pos_site_id
 _symmetry_equiv_pos_as_xyz
  1  'x, y, z'
loop_
 _atom_site_type_symbol
 _atom_site_label
 _atom_site_symmetry_multiplicity
 _atom_site_fract_x
 _atom_site_fract_y
 _atom_site_fract_z
 _atom_site_occupancy
  Zr  Zr1  1  0.875736  0.875736  0.751472  1.0
  Zr  Zr2  1  0.124264  0.124264  0.248528  1.0
  Zr  Zr3  1  0.000000  0.500000  0.000000  1.0
  Cu  Cu4  1  0.330405  0.522346  0.660811  1.0
  Cu  Cu5  1  0.669595  0.861536  0.339189  1.0
  Cu  Cu6  1  0.330405  0.138464  0.660811  1.0
  Cu  Cu7  1  0.669595  0.477654  0.339189  1.0
  Si  Si8  1  0.500000  0.809306  0.000000  1.0
  Si  Si9  1  0.500000  0.190694  0.000000  1.0
  Si  Si10  1  0.783994  0.283994  0.567988  1.0
  Si  Si11  1  0.216006  0.716006  0.432012  1.0
