# generated using pymatgen
data_TiAl2
_symmetry_space_group_name_H-M   'P 1'
_cell_length_a   3.93168427
_cell_length_b   4.00394803
_cell_length_c   6.38861002
_cell_angle_alpha   90.00000000
_cell_angle_beta   107.92130635
_cell_angle_gamma   90.00000000
_symmetry_Int_Tables_number   1
_chemical_formula_structural   TiAl2
_chemical_formula_sum   'Ti2 Al4'
_cell_volume   95.69144846
_cell_formula_units_Z   2
loop_
 _symmetry_equiv_pos_site_id
 _symmetry_equiv_pos_as_xyz
  1  'x, y, z'
loop_
 _atom_site_type_symbol
 _atom_site_label
 _atom_site_symmetry_multiplicity
 _atom_site_fract_x
 _atom_site_fract_y
 _atom_site_fract_z
 _atom_site_occupancy
  Ti  Ti1  1  0.656009  0.000000  0.312018  1.0
  Ti  Ti2  1  0.343991  0.000000  0.687982  1.0
  Al  Al3  1  0.000000  0.000000  0.000000  1.0
  Al  Al4  1  0.500000  0.500000  0.000000  1.0
  Al  Al5  1  0.827080  0.500000  0.654159  1.0
  Al  Al6  1  0.172920  0.500000  0.345841  1.0
