# generated using pymatgen
data_SnTe
_symmetry_space_group_name_H-M   'P 1'
_cell_length_a   5.10693103
_cell_length_b   5.10693104
_cell_length_c   5.10693103
_cell_angle_alpha   59.99999997
_cell_angle_beta   59.99999997
_cell_angle_gamma   60.00000002
_symmetry_Int_Tables_number   1
_chemical_formula_structural   SnTe
_chemical_formula_sum   'Sn1 Te1'
_cell_volume   94.18136508
_cell_formula_units_Z   1
loop_
 _symmetry_equiv_pos_site_id
 _symmetry_equiv_pos_as_xyz
  1  'x, y, z'
loop_
 _atom_site_type_symbol
 _atom_site_label
 _atom_site_symmetry_multiplicity
 _atom_site_fract_x
 _atom_site_fract_y
 _atom_site_fract_z
 _atom_site_occupancy
  Sn  Sn1  1  0.000000  0.000000  0.000000  1.0
  Te  Te2  1  0.250000  0.250000  0.250000  1.0
