# generated using pymatgen
data_TlCu3S2
_symmetry_space_group_name_H-M   'P 1'
_cell_length_a   3.84397527
_cell_length_b   7.51449060
_cell_length_c   8.42791721
_cell_angle_alpha   110.73764432
_cell_angle_beta   90.00000000
_cell_angle_gamma   104.81926629
_symmetry_Int_Tables_number   1
_chemical_formula_structural   TlCu3S2
_chemical_formula_sum   'Tl2 Cu6 S4'
_cell_volume   218.99230898
_cell_formula_units_Z   2
loop_
 _symmetry_equiv_pos_site_id
 _symmetry_equiv_pos_as_xyz
  1  'x, y, z'
loop_
 _atom_site_type_symbol
 _atom_site_label
 _atom_site_symmetry_multiplicity
 _atom_site_fract_x
 _atom_site_fract_y
 _atom_site_fract_z
 _atom_site_occupancy
  Tl  Tl1  1  0.859864  0.719727  0.948229  1.0
  Tl  Tl2  1  0.140136  0.280273  0.051771  1.0
  Cu  Cu3  1  0.410418  0.820836  0.361317  1.0
  Cu  Cu4  1  0.312946  0.625891  0.581629  1.0
  Cu  Cu5  1  0.058886  0.117772  0.402974  1.0
  Cu  Cu6  1  0.941114  0.882228  0.597026  1.0
  Cu  Cu7  1  0.687054  0.374109  0.418371  1.0
  Cu  Cu8  1  0.589582  0.179164  0.638683  1.0
  S  S9  1  0.476756  0.953512  0.768935  1.0
  S  S10  1  0.523244  0.046488  0.231065  1.0
  S  S11  1  0.813478  0.626955  0.328356  1.0
  S  S12  1  0.186522  0.373045  0.671644  1.0
