# generated using pymatgen
data_Cs
_symmetry_space_group_name_H-M   'P 1'
_cell_length_a   5.51231656
_cell_length_b   5.51231656
_cell_length_c   8.89413254
_cell_angle_alpha   90.00000000
_cell_angle_beta   90.00000000
_cell_angle_gamma   119.99999997
_symmetry_Int_Tables_number   1
_chemical_formula_structural   Cs
_chemical_formula_sum   Cs2
_cell_volume   234.04670383
_cell_formula_units_Z   2
loop_
 _symmetry_equiv_pos_site_id
 _symmetry_equiv_pos_as_xyz
  1  'x, y, z'
loop_
 _atom_site_type_symbol
 _atom_site_label
 _atom_site_symmetry_multiplicity
 _atom_site_fract_x
 _atom_site_fract_y
 _atom_site_fract_z
 _atom_site_occupancy
  Cs  Cs1  1  0.333333  0.666667  0.250000  1.0
  Cs  Cs2  1  0.666667  0.333333  0.750000  1.0
