# generated using pymatgen
data_ZnGeO3
_symmetry_space_group_name_H-M   'P 1'
_cell_length_a   5.52456297
_cell_length_b   5.52456297
_cell_length_c   5.52456297
_cell_angle_alpha   54.33987559
_cell_angle_beta   54.33987561
_cell_angle_gamma   54.33987571
_symmetry_Int_Tables_number   1
_chemical_formula_structural   ZnGeO3
_chemical_formula_sum   'Zn2 Ge2 O6'
_cell_volume   103.48546111
_cell_formula_units_Z   2
loop_
 _symmetry_equiv_pos_site_id
 _symmetry_equiv_pos_as_xyz
  1  'x, y, z'
loop_
 _atom_site_type_symbol
 _atom_site_label
 _atom_site_symmetry_multiplicity
 _atom_site_fract_x
 _atom_site_fract_y
 _atom_site_fract_z
 _atom_site_occupancy
  Zn  Zn1  1  0.368367  0.368367  0.368367  1.0
  Zn  Zn2  1  0.631633  0.631633  0.631633  1.0
  Ge  Ge3  1  0.156347  0.156347  0.156347  1.0
  Ge  Ge4  1  0.843653  0.843653  0.843653  1.0
  O  O5  1  0.046372  0.785818  0.439067  1.0
  O  O6  1  0.785818  0.439067  0.046372  1.0
  O  O7  1  0.439067  0.046372  0.785818  1.0
  O  O8  1  0.953628  0.214182  0.560933  1.0
  O  O9  1  0.560933  0.953628  0.214182  1.0
  O  O10  1  0.214182  0.560933  0.953628  1.0
