# generated using pymatgen
data_Sr(CuO)2
_symmetry_space_group_name_H-M   'P 1'
_cell_length_a   5.52254234
_cell_length_b   5.52254233
_cell_length_c   6.28748990
_cell_angle_alpha   116.05087736
_cell_angle_beta   116.05087732
_cell_angle_gamma   89.99999997
_symmetry_Int_Tables_number   1
_chemical_formula_structural   Sr(CuO)2
_chemical_formula_sum   'Sr2 Cu4 O4'
_cell_volume   150.29062530
_cell_formula_units_Z   2
loop_
 _symmetry_equiv_pos_site_id
 _symmetry_equiv_pos_as_xyz
  1  'x, y, z'
loop_
 _atom_site_type_symbol
 _atom_site_label
 _atom_site_symmetry_multiplicity
 _atom_site_fract_x
 _atom_site_fract_y
 _atom_site_fract_z
 _atom_site_occupancy
  Sr  Sr1  1  0.625000  0.375000  0.250000  1.0
  Sr  Sr2  1  0.375000  0.625000  0.750000  1.0
  Cu  Cu3  1  0.500000  0.000000  0.500000  1.0
  Cu  Cu4  1  0.000000  0.000000  0.000000  1.0
  Cu  Cu5  1  0.000000  0.000000  0.500000  1.0
  Cu  Cu6  1  0.000000  0.500000  0.000000  1.0
  O  O7  1  0.125586  0.375586  0.251173  1.0
  O  O8  1  0.375586  0.125586  0.751173  1.0
  O  O9  1  0.874414  0.624414  0.748827  1.0
  O  O10  1  0.624414  0.874414  0.248827  1.0
