# generated using pymatgen
data_P
_symmetry_space_group_name_H-M   'P 1'
_cell_length_a   6.02478933
_cell_length_b   11.86297414
_cell_length_c   12.01903084
_cell_angle_alpha   94.11353482
_cell_angle_beta   98.72841770
_cell_angle_gamma   100.18562174
_symmetry_Int_Tables_number   1
_chemical_formula_structural   P
_chemical_formula_sum   P24
_cell_volume   831.39265854
_cell_formula_units_Z   24
loop_
 _symmetry_equiv_pos_site_id
 _symmetry_equiv_pos_as_xyz
  1  'x, y, z'
loop_
 _atom_site_type_symbol
 _atom_site_label
 _atom_site_symmetry_multiplicity
 _atom_site_fract_x
 _atom_site_fract_y
 _atom_site_fract_z
 _atom_site_occupancy
  P  P1  1  0.072058  0.002225  0.186819  1.0
  P  P2  1  0.927942  0.997775  0.813181  1.0
  P  P3  1  0.850467  0.952993  0.312077  1.0
  P  P4  1  0.149533  0.047007  0.687923  1.0
  P  P5  1  0.006843  0.134953  0.309157  1.0
  P  P6  1  0.993157  0.865047  0.690843  1.0
  P  P7  1  0.221928  0.011505  0.366927  1.0
  P  P8  1  0.778072  0.988495  0.633073  1.0
  P  P9  1  0.763585  0.368292  0.057522  1.0
  P  P10  1  0.236415  0.631708  0.942477  1.0
  P  P11  1  0.592584  0.186137  0.034895  1.0
  P  P12  1  0.407416  0.813863  0.965105  1.0
  P  P13  1  0.513831  0.305591  0.165930  1.0
  P  P14  1  0.486169  0.694409  0.834070  1.0
  P  P15  1  0.396884  0.320114  0.985814  1.0
  P  P16  1  0.603116  0.679886  0.014186  1.0
  P  P17  1  0.296883  0.682883  0.463448  1.0
  P  P18  1  0.703117  0.317117  0.536552  1.0
  P  P19  1  0.947588  0.627152  0.367824  1.0
  P  P20  1  0.052412  0.372848  0.632176  1.0
  P  P21  1  0.201284  0.515294  0.359954  1.0
  P  P22  1  0.798716  0.484706  0.640046  1.0
  P  P23  1  0.236519  0.676026  0.277493  1.0
  P  P24  1  0.763481  0.323974  0.722507  1.0
