# generated using pymatgen
data_Ca(BC)2
_symmetry_space_group_name_H-M   'P 1'
_cell_length_a   5.31353359
_cell_length_b   5.31353359
_cell_length_c   5.31353359
_cell_angle_alpha   91.12884072
_cell_angle_beta   119.35041768
_cell_angle_gamma   119.35041768
_symmetry_Int_Tables_number   1
_chemical_formula_structural   Ca(BC)2
_chemical_formula_sum   'Ca2 B4 C4'
_cell_volume   107.09947938
_cell_formula_units_Z   2
loop_
 _symmetry_equiv_pos_site_id
 _symmetry_equiv_pos_as_xyz
  1  'x, y, z'
loop_
 _atom_site_type_symbol
 _atom_site_label
 _atom_site_symmetry_multiplicity
 _atom_site_fract_x
 _atom_site_fract_y
 _atom_site_fract_z
 _atom_site_occupancy
  Ca  Ca1  1  0.000000  0.750000  0.750000  1.0
  Ca  Ca2  1  0.000000  0.250000  0.250000  1.0
  B  B3  1  0.222133  0.361067  0.861067  1.0
  B  B4  1  0.500000  0.861067  0.638933  1.0
  B  B5  1  0.500000  0.138933  0.361067  1.0
  B  B6  1  0.777867  0.638933  0.138933  1.0
  C  C7  1  0.500000  0.659301  0.840699  1.0
  C  C8  1  0.818601  0.159301  0.659301  1.0
  C  C9  1  0.500000  0.340699  0.159301  1.0
  C  C10  1  0.181399  0.840699  0.340699  1.0
