# generated using pymatgen
data_Ca(ZnGe)2
_symmetry_space_group_name_H-M   'P 1'
_cell_length_a   4.32428254
_cell_length_b   4.32428254
_cell_length_c   6.15563455
_cell_angle_alpha   110.56353758
_cell_angle_beta   110.56353762
_cell_angle_gamma   90.00000000
_symmetry_Int_Tables_number   1
_chemical_formula_structural   Ca(ZnGe)2
_chemical_formula_sum   'Ca1 Zn2 Ge2'
_cell_volume   99.90133485
_cell_formula_units_Z   1
loop_
 _symmetry_equiv_pos_site_id
 _symmetry_equiv_pos_as_xyz
  1  'x, y, z'
loop_
 _atom_site_type_symbol
 _atom_site_label
 _atom_site_symmetry_multiplicity
 _atom_site_fract_x
 _atom_site_fract_y
 _atom_site_fract_z
 _atom_site_occupancy
  Ca  Ca1  1  0.000000  0.000000  0.000000  1.0
  Zn  Zn2  1  0.750000  0.250000  0.500000  1.0
  Zn  Zn3  1  0.250000  0.750000  0.500000  1.0
  Ge  Ge4  1  0.382406  0.382406  0.764811  1.0
  Ge  Ge5  1  0.617594  0.617594  0.235189  1.0
