# generated using pymatgen
data_BaNiSn3
_symmetry_space_group_name_H-M   'P 1'
_cell_length_a   4.87124710
_cell_length_b   4.87124710
_cell_length_c   6.51579454
_cell_angle_alpha   111.95035023
_cell_angle_beta   111.95035025
_cell_angle_gamma   90.00000002
_symmetry_Int_Tables_number   1
_chemical_formula_structural   BaNiSn3
_chemical_formula_sum   'Ba1 Ni1 Sn3'
_cell_volume   131.24342136
_cell_formula_units_Z   1
loop_
 _symmetry_equiv_pos_site_id
 _symmetry_equiv_pos_as_xyz
  1  'x, y, z'
loop_
 _atom_site_type_symbol
 _atom_site_label
 _atom_site_symmetry_multiplicity
 _atom_site_fract_x
 _atom_site_fract_y
 _atom_site_fract_z
 _atom_site_occupancy
  Ba  Ba1  1  0.001129  0.001129  0.002259  1.0
  Ni  Ni2  1  0.660016  0.660016  0.320033  1.0
  Sn  Sn3  1  0.749654  0.249654  0.499308  1.0
  Sn  Sn4  1  0.427846  0.427846  0.855692  1.0
  Sn  Sn5  1  0.249654  0.749654  0.499308  1.0
