# generated using pymatgen
data_ZrVGe
_symmetry_space_group_name_H-M   'P 1'
_cell_length_a   3.75320269
_cell_length_b   3.75320268
_cell_length_c   7.75956659
_cell_angle_alpha   103.99537532
_cell_angle_beta   103.99537530
_cell_angle_gamma   89.99999996
_symmetry_Int_Tables_number   1
_chemical_formula_structural   ZrVGe
_chemical_formula_sum   'Zr2 V2 Ge2'
_cell_volume   102.71351693
_cell_formula_units_Z   2
loop_
 _symmetry_equiv_pos_site_id
 _symmetry_equiv_pos_as_xyz
  1  'x, y, z'
loop_
 _atom_site_type_symbol
 _atom_site_label
 _atom_site_symmetry_multiplicity
 _atom_site_fract_x
 _atom_site_fract_y
 _atom_site_fract_z
 _atom_site_occupancy
  Zr  Zr1  1  0.676313  0.676313  0.352626  1.0
  Zr  Zr2  1  0.323687  0.323687  0.647374  1.0
  V  V3  1  0.000000  0.500000  0.000000  1.0
  V  V4  1  0.500000  0.000000  0.000000  1.0
  Ge  Ge5  1  0.126739  0.126739  0.253478  1.0
  Ge  Ge6  1  0.873261  0.873261  0.746522  1.0
