# generated using pymatgen
data_HfVGe
_symmetry_space_group_name_H-M   'P 1'
_cell_length_a   3.72571282
_cell_length_b   3.72571281
_cell_length_c   7.68108063
_cell_angle_alpha   104.03563393
_cell_angle_beta   104.03563391
_cell_angle_gamma   90.00000002
_symmetry_Int_Tables_number   1
_chemical_formula_structural   HfVGe
_chemical_formula_sum   'Hf2 V2 Ge2'
_cell_volume   100.15317190
_cell_formula_units_Z   2
loop_
 _symmetry_equiv_pos_site_id
 _symmetry_equiv_pos_as_xyz
  1  'x, y, z'
loop_
 _atom_site_type_symbol
 _atom_site_label
 _atom_site_symmetry_multiplicity
 _atom_site_fract_x
 _atom_site_fract_y
 _atom_site_fract_z
 _atom_site_occupancy
  Hf  Hf1  1  0.676782  0.676782  0.353565  1.0
  Hf  Hf2  1  0.323218  0.323218  0.646435  1.0
  V  V3  1  0.000000  0.500000  0.000000  1.0
  V  V4  1  0.500000  0.000000  0.000000  1.0
  Ge  Ge5  1  0.128000  0.128000  0.256001  1.0
  Ge  Ge6  1  0.872000  0.872000  0.743999  1.0
