# generated using pymatgen
data_UCO5
_symmetry_space_group_name_H-M   'P 1'
_cell_length_a   4.34794155
_cell_length_b   4.89084771
_cell_length_c   5.82616288
_cell_angle_alpha   114.81763461
_cell_angle_beta   111.90936160
_cell_angle_gamma   90.00000002
_symmetry_Int_Tables_number   1
_chemical_formula_structural   UCO5
_chemical_formula_sum   'U1 C1 O5'
_cell_volume   102.51006988
_cell_formula_units_Z   1
loop_
 _symmetry_equiv_pos_site_id
 _symmetry_equiv_pos_as_xyz
  1  'x, y, z'
loop_
 _atom_site_type_symbol
 _atom_site_label
 _atom_site_symmetry_multiplicity
 _atom_site_fract_x
 _atom_site_fract_y
 _atom_site_fract_z
 _atom_site_occupancy
  U  U1  1  0.993925  0.000000  0.000000  1.0
  C  C2  1  0.380848  0.500000  0.000000  1.0
  O  O3  1  0.811193  0.814434  0.628868  1.0
  O  O4  1  0.080529  0.500000  0.000000  1.0
  O  O5  1  0.182325  0.185566  0.371132  1.0
  O  O6  1  0.510240  0.264193  0.000000  1.0
  O  O7  1  0.510240  0.735807  0.000000  1.0
