# generated using pymatgen
data_CaNi4B
_symmetry_space_group_name_H-M   'P 1'
_cell_length_a   5.03799751
_cell_length_b   5.03799751
_cell_length_c   6.82995804
_cell_angle_alpha   90.00000000
_cell_angle_beta   90.00000000
_cell_angle_gamma   119.99999994
_symmetry_Int_Tables_number   1
_chemical_formula_structural   CaNi4B
_chemical_formula_sum   'Ca2 Ni8 B2'
_cell_volume   150.12899059
_cell_formula_units_Z   2
loop_
 _symmetry_equiv_pos_site_id
 _symmetry_equiv_pos_as_xyz
  1  'x, y, z'
loop_
 _atom_site_type_symbol
 _atom_site_label
 _atom_site_symmetry_multiplicity
 _atom_site_fract_x
 _atom_site_fract_y
 _atom_site_fract_z
 _atom_site_occupancy
  Ca  Ca1  1  0.000000  0.000000  0.500000  1.0
  Ca  Ca2  1  0.000000  0.000000  0.000000  1.0
  Ni  Ni3  1  0.500000  0.500000  0.795259  1.0
  Ni  Ni4  1  0.000000  0.500000  0.795259  1.0
  Ni  Ni5  1  0.333333  0.666667  0.500000  1.0
  Ni  Ni6  1  0.666667  0.333333  0.500000  1.0
  Ni  Ni7  1  0.500000  0.000000  0.795259  1.0
  Ni  Ni8  1  0.000000  0.500000  0.204741  1.0
  Ni  Ni9  1  0.500000  0.500000  0.204741  1.0
  Ni  Ni10  1  0.500000  0.000000  0.204741  1.0
  B  B11  1  0.666667  0.333333  0.000000  1.0
  B  B12  1  0.333333  0.666667  0.000000  1.0
