# generated using pymatgen
data_Fe5C2
_symmetry_space_group_name_H-M   'P 1'
_cell_length_a   4.50732175
_cell_length_b   4.98962634
_cell_length_c   6.22366465
_cell_angle_alpha   97.05804006
_cell_angle_beta   111.22993057
_cell_angle_gamma   90.00000004
_symmetry_Int_Tables_number   1
_chemical_formula_structural   Fe5C2
_chemical_formula_sum   'Fe10 C4'
_cell_volume   129.33170409
_cell_formula_units_Z   2
loop_
 _symmetry_equiv_pos_site_id
 _symmetry_equiv_pos_as_xyz
  1  'x, y, z'
loop_
 _atom_site_type_symbol
 _atom_site_label
 _atom_site_symmetry_multiplicity
 _atom_site_fract_x
 _atom_site_fract_y
 _atom_site_fract_z
 _atom_site_occupancy
  Fe  Fe1  1  0.015022  0.416994  0.196789  1.0
  Fe  Fe2  1  0.818233  0.083006  0.803211  1.0
  Fe  Fe3  1  0.367577  0.689388  0.571374  1.0
  Fe  Fe4  1  0.796203  0.810612  0.428626  1.0
  Fe  Fe5  1  0.632423  0.310612  0.428626  1.0
  Fe  Fe6  1  0.203797  0.189388  0.571374  1.0
  Fe  Fe7  1  0.181767  0.916994  0.196789  1.0
  Fe  Fe8  1  0.984978  0.583006  0.803211  1.0
  Fe  Fe9  1  0.432775  0.250000  0.000000  1.0
  Fe  Fe10  1  0.567225  0.750000  0.000000  1.0
  C  C11  1  0.572475  0.421289  0.773885  1.0
  C  C12  1  0.798590  0.078711  0.226115  1.0
  C  C13  1  0.427525  0.578711  0.226115  1.0
  C  C14  1  0.201410  0.921289  0.773885  1.0
