# generated using pymatgen
data_CaSn2Pd
_symmetry_space_group_name_H-M   'P 1'
_cell_length_a   4.45975011
_cell_length_b   6.06306366
_cell_length_c   7.58214701
_cell_angle_alpha   90.00000000
_cell_angle_beta   90.00000000
_cell_angle_gamma   111.57878432
_symmetry_Int_Tables_number   1
_chemical_formula_structural   CaSn2Pd
_chemical_formula_sum   'Ca2 Sn4 Pd2'
_cell_volume   190.65010464
_cell_formula_units_Z   2
loop_
 _symmetry_equiv_pos_site_id
 _symmetry_equiv_pos_as_xyz
  1  'x, y, z'
loop_
 _atom_site_type_symbol
 _atom_site_label
 _atom_site_symmetry_multiplicity
 _atom_site_fract_x
 _atom_site_fract_y
 _atom_site_fract_z
 _atom_site_occupancy
  Ca  Ca1  1  0.069440  0.138880  0.750000  1.0
  Ca  Ca2  1  0.930560  0.861120  0.250000  1.0
  Sn  Sn3  1  0.358338  0.716677  0.955263  1.0
  Sn  Sn4  1  0.641662  0.283323  0.044737  1.0
  Sn  Sn5  1  0.641662  0.283323  0.455263  1.0
  Sn  Sn6  1  0.358338  0.716677  0.544737  1.0
  Pd  Pd7  1  0.795501  0.591002  0.750000  1.0
  Pd  Pd8  1  0.204499  0.408998  0.250000  1.0
