# generated using pymatgen
data_YbSnRh
_symmetry_space_group_name_H-M   'P 1'
_cell_length_a   7.30628517
_cell_length_b   7.30628517
_cell_length_c   4.13764737
_cell_angle_alpha   90.00000000
_cell_angle_beta   90.00000000
_cell_angle_gamma   120.00000005
_symmetry_Int_Tables_number   1
_chemical_formula_structural   YbSnRh
_chemical_formula_sum   'Yb3 Sn3 Rh3'
_cell_volume   191.28342741
_cell_formula_units_Z   3
loop_
 _symmetry_equiv_pos_site_id
 _symmetry_equiv_pos_as_xyz
  1  'x, y, z'
loop_
 _atom_site_type_symbol
 _atom_site_label
 _atom_site_symmetry_multiplicity
 _atom_site_fract_x
 _atom_site_fract_y
 _atom_site_fract_z
 _atom_site_occupancy
  Yb  Yb1  1  0.000000  0.409268  0.000000  1.0
  Yb  Yb2  1  0.590732  0.590732  0.000000  1.0
  Yb  Yb3  1  0.409268  0.000000  0.000000  1.0
  Sn  Sn4  1  0.257742  0.257742  0.500000  1.0
  Sn  Sn5  1  0.000000  0.742258  0.500000  1.0
  Sn  Sn6  1  0.742258  0.000000  0.500000  1.0
  Rh  Rh7  1  0.666667  0.333333  0.500000  1.0
  Rh  Rh8  1  0.333333  0.666667  0.500000  1.0
  Rh  Rh9  1  0.000000  0.000000  0.000000  1.0
