# generated using pymatgen
data_Cs2Pt3S4
_symmetry_space_group_name_H-M   'P 1'
_cell_length_a   6.43603099
_cell_length_b   6.43603100
_cell_length_c   7.83413802
_cell_angle_alpha   102.24462966
_cell_angle_beta   102.24462969
_cell_angle_gamma   118.92631399
_symmetry_Int_Tables_number   1
_chemical_formula_structural   Cs2Pt3S4
_chemical_formula_sum   'Cs2 Pt3 S4'
_cell_volume   258.09744748
_cell_formula_units_Z   1
loop_
 _symmetry_equiv_pos_site_id
 _symmetry_equiv_pos_as_xyz
  1  'x, y, z'
loop_
 _atom_site_type_symbol
 _atom_site_label
 _atom_site_symmetry_multiplicity
 _atom_site_fract_x
 _atom_site_fract_y
 _atom_site_fract_z
 _atom_site_occupancy
  Cs  Cs1  1  0.652784  0.652784  0.305568  1.0
  Cs  Cs2  1  0.347216  0.347216  0.694432  1.0
  Pt  Pt3  1  0.500000  0.000000  0.000000  1.0
  Pt  Pt4  1  0.000000  0.000000  0.000000  1.0
  Pt  Pt5  1  0.000000  0.500000  0.000000  1.0
  S  S6  1  0.728838  0.065010  0.793849  1.0
  S  S7  1  0.065010  0.728838  0.793849  1.0
  S  S8  1  0.271162  0.934990  0.206151  1.0
  S  S9  1  0.934990  0.271162  0.206151  1.0
