# generated using pymatgen
data_Ta2O5
_symmetry_space_group_name_H-M   'P 1'
_cell_length_a   4.92996337
_cell_length_b   5.59861805
_cell_length_c   6.92842174
_cell_angle_alpha   102.29128386
_cell_angle_beta   110.84114843
_cell_angle_gamma   90.00000001
_symmetry_Int_Tables_number   1
_chemical_formula_structural   Ta2O5
_chemical_formula_sum   'Ta4 O10'
_cell_volume   174.02076792
_cell_formula_units_Z   2
loop_
 _symmetry_equiv_pos_site_id
 _symmetry_equiv_pos_as_xyz
  1  'x, y, z'
loop_
 _atom_site_type_symbol
 _atom_site_label
 _atom_site_symmetry_multiplicity
 _atom_site_fract_x
 _atom_site_fract_y
 _atom_site_fract_z
 _atom_site_occupancy
  Ta  Ta1  1  0.612641  0.230777  0.717960  1.0
  Ta  Ta2  1  0.894681  0.269223  0.282040  1.0
  Ta  Ta3  1  0.387359  0.769223  0.282040  1.0
  Ta  Ta4  1  0.105319  0.730777  0.717960  1.0
  O  O5  1  0.273205  0.127567  0.409433  1.0
  O  O6  1  0.863772  0.372433  0.590567  1.0
  O  O7  1  0.726795  0.872433  0.590567  1.0
  O  O8  1  0.136228  0.627567  0.409433  1.0
  O  O9  1  0.108772  0.750000  0.000000  1.0
  O  O10  1  0.891228  0.250000  0.000000  1.0
  O  O11  1  0.662107  0.983320  0.223639  1.0
  O  O12  1  0.438468  0.516680  0.776361  1.0
  O  O13  1  0.337893  0.016680  0.776361  1.0
  O  O14  1  0.561532  0.483320  0.223639  1.0
