# generated using pymatgen
data_Ba2ZrO4
_symmetry_space_group_name_H-M   'P 1'
_cell_length_a   4.24906120
_cell_length_b   4.24906120
_cell_length_c   7.44469449
_cell_angle_alpha   106.58127271
_cell_angle_beta   106.58127264
_cell_angle_gamma   89.99999998
_symmetry_Int_Tables_number   1
_chemical_formula_structural   Ba2ZrO4
_chemical_formula_sum   'Ba2 Zr1 O4'
_cell_volume   122.97795067
_cell_formula_units_Z   1
loop_
 _symmetry_equiv_pos_site_id
 _symmetry_equiv_pos_as_xyz
  1  'x, y, z'
loop_
 _atom_site_type_symbol
 _atom_site_label
 _atom_site_symmetry_multiplicity
 _atom_site_fract_x
 _atom_site_fract_y
 _atom_site_fract_z
 _atom_site_occupancy
  Ba  Ba1  1  0.647008  0.647008  0.294017  1.0
  Ba  Ba2  1  0.352992  0.352992  0.705983  1.0
  Zr  Zr3  1  0.000000  0.000000  0.000000  1.0
  O  O4  1  0.842544  0.842544  0.685088  1.0
  O  O5  1  0.157456  0.157456  0.314912  1.0
  O  O6  1  0.000000  0.500000  0.000000  1.0
  O  O7  1  0.500000  0.000000  0.000000  1.0
