# generated using pymatgen
data_Tm2Al3Si2
_symmetry_space_group_name_H-M   'P 1'
_cell_length_a   4.00096918
_cell_length_b   5.42659300
_cell_length_c   6.57891800
_cell_angle_alpha   99.98103561
_cell_angle_beta   90.00000000
_cell_angle_gamma   111.63205489
_symmetry_Int_Tables_number   1
_chemical_formula_structural   Tm2Al3Si2
_chemical_formula_sum   'Tm2 Al3 Si2'
_cell_volume   130.45048910
_cell_formula_units_Z   1
loop_
 _symmetry_equiv_pos_site_id
 _symmetry_equiv_pos_as_xyz
  1  'x, y, z'
loop_
 _atom_site_type_symbol
 _atom_site_label
 _atom_site_symmetry_multiplicity
 _atom_site_fract_x
 _atom_site_fract_y
 _atom_site_fract_z
 _atom_site_occupancy
  Tm  Tm1  1  0.380666  0.761333  0.677076  1.0
  Tm  Tm2  1  0.619334  0.238667  0.322924  1.0
  Al  Al3  1  0.694890  0.389780  0.866866  1.0
  Al  Al4  1  0.000000  0.000000  0.000000  1.0
  Al  Al5  1  0.305110  0.610220  0.133134  1.0
  Si  Si6  1  0.906107  0.812213  0.360771  1.0
  Si  Si7  1  0.093893  0.187787  0.639229  1.0
