# generated using pymatgen
data_TbAl2Ni
_symmetry_space_group_name_H-M   'P 1'
_cell_length_a   4.05226948
_cell_length_b   5.54406422
_cell_length_c   6.88461120
_cell_angle_alpha   90.00000000
_cell_angle_beta   90.00000000
_cell_angle_gamma   111.43590607
_symmetry_Int_Tables_number   1
_chemical_formula_structural   TbAl2Ni
_chemical_formula_sum   'Tb2 Al4 Ni2'
_cell_volume   143.97097615
_cell_formula_units_Z   2
loop_
 _symmetry_equiv_pos_site_id
 _symmetry_equiv_pos_as_xyz
  1  'x, y, z'
loop_
 _atom_site_type_symbol
 _atom_site_label
 _atom_site_symmetry_multiplicity
 _atom_site_fract_x
 _atom_site_fract_y
 _atom_site_fract_z
 _atom_site_occupancy
  Tb  Tb1  1  0.059888  0.119776  0.750000  1.0
  Tb  Tb2  1  0.940112  0.880224  0.250000  1.0
  Al  Al3  1  0.340889  0.681778  0.945133  1.0
  Al  Al4  1  0.659111  0.318222  0.054867  1.0
  Al  Al5  1  0.659111  0.318222  0.445133  1.0
  Al  Al6  1  0.340889  0.681778  0.554867  1.0
  Ni  Ni7  1  0.783434  0.566868  0.750000  1.0
  Ni  Ni8  1  0.216566  0.433132  0.250000  1.0
