# generated using pymatgen
data_TiZn16
_symmetry_space_group_name_H-M   'P 1'
_cell_length_a   6.92975416
_cell_length_b   6.92975416
_cell_length_c   11.67330701
_cell_angle_alpha   90.00000000
_cell_angle_beta   90.00000000
_cell_angle_gamma   112.42701942
_symmetry_Int_Tables_number   1
_chemical_formula_structural   TiZn16
_chemical_formula_sum   'Ti2 Zn32'
_cell_volume   518.17163132
_cell_formula_units_Z   2
loop_
 _symmetry_equiv_pos_site_id
 _symmetry_equiv_pos_as_xyz
  1  'x, y, z'
loop_
 _atom_site_type_symbol
 _atom_site_label
 _atom_site_symmetry_multiplicity
 _atom_site_fract_x
 _atom_site_fract_y
 _atom_site_fract_z
 _atom_site_occupancy
  Ti  Ti1  1  0.047104  0.952896  0.750000  1.0
  Ti  Ti2  1  0.952896  0.047104  0.250000  1.0
  Zn  Zn3  1  0.353377  0.982912  0.930752  1.0
  Zn  Zn4  1  0.646623  0.017088  0.430752  1.0
  Zn  Zn5  1  0.982912  0.353377  0.069248  1.0
  Zn  Zn6  1  0.017088  0.646623  0.569248  1.0
  Zn  Zn7  1  0.646623  0.017088  0.069248  1.0
  Zn  Zn8  1  0.353377  0.982912  0.569248  1.0
  Zn  Zn9  1  0.017088  0.646623  0.930752  1.0
  Zn  Zn10  1  0.982912  0.353377  0.430752  1.0
  Zn  Zn11  1  0.652727  0.758654  0.864968  1.0
  Zn  Zn12  1  0.347273  0.241346  0.364968  1.0
  Zn  Zn13  1  0.758654  0.652727  0.135032  1.0
  Zn  Zn14  1  0.241346  0.347273  0.635032  1.0
  Zn  Zn15  1  0.347273  0.241346  0.135032  1.0
  Zn  Zn16  1  0.652727  0.758654  0.635032  1.0
  Zn  Zn17  1  0.241346  0.347273  0.864968  1.0
  Zn  Zn18  1  0.758654  0.652727  0.364968  1.0
  Zn  Zn19  1  0.477212  0.192067  0.750000  1.0
  Zn  Zn20  1  0.522788  0.807933  0.250000  1.0
  Zn  Zn21  1  0.192067  0.477212  0.250000  1.0
  Zn  Zn22  1  0.807933  0.522788  0.750000  1.0
  Zn  Zn23  1  0.175974  0.824026  0.359131  1.0
  Zn  Zn24  1  0.824026  0.175974  0.859131  1.0
  Zn  Zn25  1  0.824026  0.175974  0.640869  1.0
  Zn  Zn26  1  0.175974  0.824026  0.140869  1.0
  Zn  Zn27  1  0.620674  0.379326  0.969238  1.0
  Zn  Zn28  1  0.379326  0.620674  0.469238  1.0
  Zn  Zn29  1  0.379326  0.620674  0.030762  1.0
  Zn  Zn30  1  0.620674  0.379326  0.530762  1.0
  Zn  Zn31  1  0.288759  0.711241  0.750000  1.0
  Zn  Zn32  1  0.711241  0.288759  0.250000  1.0
  Zn  Zn33  1  0.000000  0.000000  0.000000  1.0
  Zn  Zn34  1  0.000000  0.000000  0.500000  1.0
