# generated using pymatgen
data_Ba(BIr)2
_symmetry_space_group_name_H-M   'P 1'
_cell_length_a   3.96250043
_cell_length_b   3.96250043
_cell_length_c   6.41378880
_cell_angle_alpha   107.99324168
_cell_angle_beta   107.99324161
_cell_angle_gamma   90.00000005
_symmetry_Int_Tables_number   1
_chemical_formula_structural   Ba(BIr)2
_chemical_formula_sum   'Ba1 B2 Ir2'
_cell_volume   90.58772052
_cell_formula_units_Z   1
loop_
 _symmetry_equiv_pos_site_id
 _symmetry_equiv_pos_as_xyz
  1  'x, y, z'
loop_
 _atom_site_type_symbol
 _atom_site_label
 _atom_site_symmetry_multiplicity
 _atom_site_fract_x
 _atom_site_fract_y
 _atom_site_fract_z
 _atom_site_occupancy
  Ba  Ba1  1  0.000000  0.000000  0.000000  1.0
  B  B2  1  0.682305  0.682305  0.364609  1.0
  B  B3  1  0.317695  0.317695  0.635391  1.0
  Ir  Ir4  1  0.750000  0.250000  0.500000  1.0
  Ir  Ir5  1  0.250000  0.750000  0.500000  1.0
