# generated using pymatgen
data_Nb2Se3
_symmetry_space_group_name_H-M   'P 1'
_cell_length_a   3.46735410
_cell_length_b   6.63692856
_cell_length_c   9.31098479
_cell_angle_alpha   104.15324534
_cell_angle_beta   90.00000000
_cell_angle_gamma   90.00000000
_symmetry_Int_Tables_number   1
_chemical_formula_structural   Nb2Se3
_chemical_formula_sum   'Nb4 Se6'
_cell_volume   207.76567985
_cell_formula_units_Z   2
loop_
 _symmetry_equiv_pos_site_id
 _symmetry_equiv_pos_as_xyz
  1  'x, y, z'
loop_
 _atom_site_type_symbol
 _atom_site_label
 _atom_site_symmetry_multiplicity
 _atom_site_fract_x
 _atom_site_fract_y
 _atom_site_fract_z
 _atom_site_occupancy
  Nb  Nb1  1  0.250000  0.114067  0.635339  1.0
  Nb  Nb2  1  0.750000  0.885933  0.364661  1.0
  Nb  Nb3  1  0.250000  0.318832  0.001893  1.0
  Nb  Nb4  1  0.750000  0.681168  0.998107  1.0
  Se  Se5  1  0.250000  0.728892  0.512980  1.0
  Se  Se6  1  0.750000  0.271108  0.487020  1.0
  Se  Se7  1  0.250000  0.972033  0.156807  1.0
  Se  Se8  1  0.750000  0.027967  0.843193  1.0
  Se  Se9  1  0.750000  0.476282  0.203105  1.0
  Se  Se10  1  0.250000  0.523718  0.796895  1.0
