# generated using pymatgen
data_YTiGe
_symmetry_space_group_name_H-M   'P 1'
_cell_length_a   4.06040920
_cell_length_b   4.06040920
_cell_length_c   8.25280899
_cell_angle_alpha   104.24103568
_cell_angle_beta   104.24103565
_cell_angle_gamma   90.00000006
_symmetry_Int_Tables_number   1
_chemical_formula_structural   YTiGe
_chemical_formula_sum   'Y2 Ti2 Ge2'
_cell_volume   127.56382455
_cell_formula_units_Z   2
loop_
 _symmetry_equiv_pos_site_id
 _symmetry_equiv_pos_as_xyz
  1  'x, y, z'
loop_
 _atom_site_type_symbol
 _atom_site_label
 _atom_site_symmetry_multiplicity
 _atom_site_fract_x
 _atom_site_fract_y
 _atom_site_fract_z
 _atom_site_occupancy
  Y  Y1  1  0.674139  0.674139  0.348278  1.0
  Y  Y2  1  0.325861  0.325861  0.651722  1.0
  Ti  Ti3  1  0.000000  0.500000  0.000000  1.0
  Ti  Ti4  1  0.500000  0.000000  0.000000  1.0
  Ge  Ge5  1  0.122421  0.122421  0.244842  1.0
  Ge  Ge6  1  0.877579  0.877579  0.755158  1.0
