# generated using pymatgen
data_NbSn2
_symmetry_space_group_name_H-M   'P 1'
_cell_length_a   5.72502262
_cell_length_b   5.73621330
_cell_length_c   10.07323468
_cell_angle_alpha   81.84752947
_cell_angle_beta   73.49075687
_cell_angle_gamma   60.06451366
_symmetry_Int_Tables_number   1
_chemical_formula_structural   NbSn2
_chemical_formula_sum   'Nb4 Sn8'
_cell_volume   274.85285213
_cell_formula_units_Z   4
loop_
 _symmetry_equiv_pos_site_id
 _symmetry_equiv_pos_as_xyz
  1  'x, y, z'
loop_
 _atom_site_type_symbol
 _atom_site_label
 _atom_site_symmetry_multiplicity
 _atom_site_fract_x
 _atom_site_fract_y
 _atom_site_fract_z
 _atom_site_occupancy
  Nb  Nb1  1  0.001975  0.250000  0.996050  1.0
  Nb  Nb2  1  0.748025  0.250000  0.503950  1.0
  Nb  Nb3  1  0.998025  0.750000  0.003950  1.0
  Nb  Nb4  1  0.251975  0.750000  0.496050  1.0
  Sn  Sn5  1  0.043812  0.912377  0.250000  1.0
  Sn  Sn6  1  0.706188  0.587623  0.250000  1.0
  Sn  Sn7  1  0.956188  0.087623  0.750000  1.0
  Sn  Sn8  1  0.293812  0.412377  0.750000  1.0
  Sn  Sn9  1  0.292168  0.250000  0.415665  1.0
  Sn  Sn10  1  0.457832  0.250000  0.084335  1.0
  Sn  Sn11  1  0.707832  0.750000  0.584335  1.0
  Sn  Sn12  1  0.542168  0.750000  0.915665  1.0
