# generated using pymatgen
data_NaHg
_symmetry_space_group_name_H-M   'P 1'
_cell_length_a   5.39605073
_cell_length_b   6.54550820
_cell_length_c   6.54550820
_cell_angle_alpha   112.20913906
_cell_angle_beta   90.00000000
_cell_angle_gamma   90.00000000
_symmetry_Int_Tables_number   1
_chemical_formula_structural   NaHg
_chemical_formula_sum   'Na4 Hg4'
_cell_volume   214.03499012
_cell_formula_units_Z   4
loop_
 _symmetry_equiv_pos_site_id
 _symmetry_equiv_pos_as_xyz
  1  'x, y, z'
loop_
 _atom_site_type_symbol
 _atom_site_label
 _atom_site_symmetry_multiplicity
 _atom_site_fract_x
 _atom_site_fract_y
 _atom_site_fract_z
 _atom_site_occupancy
  Na  Na1  1  0.250000  0.173663  0.826337  1.0
  Na  Na2  1  0.750000  0.826337  0.173663  1.0
  Na  Na3  1  0.250000  0.626085  0.373915  1.0
  Na  Na4  1  0.750000  0.373915  0.626085  1.0
  Hg  Hg5  1  0.750000  0.880984  0.693538  1.0
  Hg  Hg6  1  0.250000  0.119016  0.306461  1.0
  Hg  Hg7  1  0.250000  0.693538  0.880984  1.0
  Hg  Hg8  1  0.750000  0.306461  0.119016  1.0
