# generated using pymatgen
data_K(PRh)2
_symmetry_space_group_name_H-M   'P 1'
_cell_length_a   3.94638968
_cell_length_b   3.94638968
_cell_length_c   7.17811664
_cell_angle_alpha   105.95547862
_cell_angle_beta   105.95547862
_cell_angle_gamma   90.00000001
_symmetry_Int_Tables_number   1
_chemical_formula_structural   K(PRh)2
_chemical_formula_sum   'K1 P2 Rh2'
_cell_volume   102.99856979
_cell_formula_units_Z   1
loop_
 _symmetry_equiv_pos_site_id
 _symmetry_equiv_pos_as_xyz
  1  'x, y, z'
loop_
 _atom_site_type_symbol
 _atom_site_label
 _atom_site_symmetry_multiplicity
 _atom_site_fract_x
 _atom_site_fract_y
 _atom_site_fract_z
 _atom_site_occupancy
  K  K1  1  0.000000  0.000000  0.000000  1.0
  P  P2  1  0.653588  0.653588  0.307176  1.0
  P  P3  1  0.346412  0.346412  0.692824  1.0
  Rh  Rh4  1  0.750000  0.250000  0.500000  1.0
  Rh  Rh5  1  0.250000  0.750000  0.500000  1.0
