# generated using pymatgen
data_SrC2
_symmetry_space_group_name_H-M   'P 1'
_cell_length_a   4.17901123
_cell_length_b   4.17901123
_cell_length_c   7.89897166
_cell_angle_alpha   74.51461394
_cell_angle_beta   74.51461392
_cell_angle_gamma   64.01644555
_symmetry_Int_Tables_number   1
_chemical_formula_structural   SrC2
_chemical_formula_sum   'Sr2 C4'
_cell_volume   117.69770499
_cell_formula_units_Z   2
loop_
 _symmetry_equiv_pos_site_id
 _symmetry_equiv_pos_as_xyz
  1  'x, y, z'
loop_
 _atom_site_type_symbol
 _atom_site_label
 _atom_site_symmetry_multiplicity
 _atom_site_fract_x
 _atom_site_fract_y
 _atom_site_fract_z
 _atom_site_occupancy
  Sr  Sr1  1  0.820400  0.179600  0.250000  1.0
  Sr  Sr2  1  0.179600  0.820400  0.750000  1.0
  C  C3  1  0.123543  0.422114  0.440563  1.0
  C  C4  1  0.577886  0.876457  0.059437  1.0
  C  C5  1  0.422114  0.123543  0.940563  1.0
  C  C6  1  0.876457  0.577886  0.559437  1.0
