# generated using pymatgen
data_FeN
_symmetry_space_group_name_H-M   'P 1'
_cell_length_a   2.73839070
_cell_length_b   2.73839070
_cell_length_c   5.00432284
_cell_angle_alpha   90.00000000
_cell_angle_beta   90.00000000
_cell_angle_gamma   120.00000002
_symmetry_Int_Tables_number   1
_chemical_formula_structural   FeN
_chemical_formula_sum   'Fe2 N2'
_cell_volume   32.49875870
_cell_formula_units_Z   2
loop_
 _symmetry_equiv_pos_site_id
 _symmetry_equiv_pos_as_xyz
  1  'x, y, z'
loop_
 _atom_site_type_symbol
 _atom_site_label
 _atom_site_symmetry_multiplicity
 _atom_site_fract_x
 _atom_site_fract_y
 _atom_site_fract_z
 _atom_site_occupancy
  Fe  Fe1  1  0.000000  0.000000  0.500000  1.0
  Fe  Fe2  1  0.000000  0.000000  0.000000  1.0
  N  N3  1  0.666667  0.333333  0.750000  1.0
  N  N4  1  0.333333  0.666667  0.250000  1.0
