# generated using pymatgen
data_Te
_symmetry_space_group_name_H-M   'P 1'
_cell_length_a   3.19694122
_cell_length_b   4.42818339
_cell_length_c   9.26876519
_cell_angle_alpha   90.00000000
_cell_angle_beta   90.00000000
_cell_angle_gamma   90.71127179
_symmetry_Int_Tables_number   1
_chemical_formula_structural   Te
_chemical_formula_sum   Te4
_cell_volume   131.20448017
_cell_formula_units_Z   4
loop_
 _symmetry_equiv_pos_site_id
 _symmetry_equiv_pos_as_xyz
  1  'x, y, z'
loop_
 _atom_site_type_symbol
 _atom_site_label
 _atom_site_symmetry_multiplicity
 _atom_site_fract_x
 _atom_site_fract_y
 _atom_site_fract_z
 _atom_site_occupancy
  Te  Te1  1  0.500318  0.525868  0.760147  1.0
  Te  Te2  1  0.499682  0.474132  0.260147  1.0
  Te  Te3  1  0.500347  0.992721  0.009853  1.0
  Te  Te4  1  0.499653  0.007279  0.509853  1.0
