# generated using pymatgen
data_Ni3S4
_symmetry_space_group_name_H-M   'P 1'
_cell_length_a   6.65503004
_cell_length_b   6.65779600
_cell_length_c   6.66069591
_cell_angle_alpha   120.01441800
_cell_angle_beta   90.00003858
_cell_angle_gamma   60.01359912
_symmetry_Int_Tables_number   1
_chemical_formula_structural   Ni3S4
_chemical_formula_sum   'Ni6 S8'
_cell_volume   208.67953372
_cell_formula_units_Z   2
loop_
 _symmetry_equiv_pos_site_id
 _symmetry_equiv_pos_as_xyz
  1  'x, y, z'
loop_
 _atom_site_type_symbol
 _atom_site_label
 _atom_site_symmetry_multiplicity
 _atom_site_fract_x
 _atom_site_fract_y
 _atom_site_fract_z
 _atom_site_occupancy
  Ni  Ni1  1  0.125027  0.249950  0.124974  1.0
  Ni  Ni2  1  0.499997  0.500005  0.999999  1.0
  Ni  Ni3  1  0.499997  0.500005  0.500007  1.0
  Ni  Ni4  1  0.499987  0.999998  0.499998  1.0
  Ni  Ni5  1  0.874974  0.750051  0.875025  1.0
  Ni  Ni6  1  0.000015  0.999997  0.499998  1.0
  S  S7  1  0.741698  0.016604  0.741804  1.0
  S  S8  1  0.741698  0.016604  0.274800  1.0
  S  S9  1  0.258307  0.983387  0.258188  1.0
  S  S10  1  0.258307  0.983387  0.725199  1.0
  S  S11  1  0.741626  0.483481  0.741741  1.0
  S  S12  1  0.258389  0.516525  0.258263  1.0
  S  S13  1  0.725085  0.516525  0.258263  1.0
  S  S14  1  0.274894  0.483480  0.741740  1.0
