# generated using pymatgen
data_Ca(ZnSi)2
_symmetry_space_group_name_H-M   'P 1'
_cell_length_a   4.24996323
_cell_length_b   4.24996323
_cell_length_c   5.90793372
_cell_angle_alpha   111.08071156
_cell_angle_beta   111.08071154
_cell_angle_gamma   90.00000001
_symmetry_Int_Tables_number   1
_chemical_formula_structural   Ca(ZnSi)2
_chemical_formula_sum   'Ca1 Zn2 Si2'
_cell_volume   91.87350258
_cell_formula_units_Z   1
loop_
 _symmetry_equiv_pos_site_id
 _symmetry_equiv_pos_as_xyz
  1  'x, y, z'
loop_
 _atom_site_type_symbol
 _atom_site_label
 _atom_site_symmetry_multiplicity
 _atom_site_fract_x
 _atom_site_fract_y
 _atom_site_fract_z
 _atom_site_occupancy
  Ca  Ca1  1  0.000000  0.000000  0.000000  1.0
  Zn  Zn2  1  0.750000  0.250000  0.500000  1.0
  Zn  Zn3  1  0.250000  0.750000  0.500000  1.0
  Si  Si4  1  0.615417  0.615417  0.230835  1.0
  Si  Si5  1  0.384583  0.384583  0.769165  1.0
