# generated using pymatgen
data_CeSiO4
_symmetry_space_group_name_H-M   'P 1'
_cell_length_a   5.89359929
_cell_length_b   5.89359929
_cell_length_c   5.89359930
_cell_angle_alpha   106.48031421
_cell_angle_beta   106.48031421
_cell_angle_gamma   115.63446894
_symmetry_Int_Tables_number   1
_chemical_formula_structural   CeSiO4
_chemical_formula_sum   'Ce2 Si2 O8'
_cell_volume   156.20473146
_cell_formula_units_Z   2
loop_
 _symmetry_equiv_pos_site_id
 _symmetry_equiv_pos_as_xyz
  1  'x, y, z'
loop_
 _atom_site_type_symbol
 _atom_site_label
 _atom_site_symmetry_multiplicity
 _atom_site_fract_x
 _atom_site_fract_y
 _atom_site_fract_z
 _atom_site_occupancy
  Ce  Ce1  1  0.125000  0.875000  0.250000  1.0
  Ce  Ce2  1  0.875000  0.125000  0.750000  1.0
  Si  Si3  1  0.625000  0.375000  0.250000  1.0
  Si  Si4  1  0.375000  0.625000  0.750000  1.0
  O  O5  1  0.794185  0.365401  0.071216  1.0
  O  O6  1  0.722968  0.794185  0.928784  1.0
  O  O7  1  0.365401  0.794185  0.571216  1.0
  O  O8  1  0.794185  0.722968  0.428784  1.0
  O  O9  1  0.277032  0.205815  0.071216  1.0
  O  O10  1  0.205815  0.634599  0.928784  1.0
  O  O11  1  0.205815  0.277032  0.571216  1.0
  O  O12  1  0.634599  0.205815  0.428784  1.0
