# generated using pymatgen
data_TiGePd
_symmetry_space_group_name_H-M   'P 1'
_cell_length_a   6.66464122
_cell_length_b   6.66464122
_cell_length_c   3.72020063
_cell_angle_alpha   90.00000000
_cell_angle_beta   90.00000000
_cell_angle_gamma   120.00000002
_symmetry_Int_Tables_number   1
_chemical_formula_structural   TiGePd
_chemical_formula_sum   'Ti3 Ge3 Pd3'
_cell_volume   143.10359473
_cell_formula_units_Z   3
loop_
 _symmetry_equiv_pos_site_id
 _symmetry_equiv_pos_as_xyz
  1  'x, y, z'
loop_
 _atom_site_type_symbol
 _atom_site_label
 _atom_site_symmetry_multiplicity
 _atom_site_fract_x
 _atom_site_fract_y
 _atom_site_fract_z
 _atom_site_occupancy
  Ti  Ti1  1  0.411089  0.411089  0.000000  1.0
  Ti  Ti2  1  0.588911  0.000000  0.000000  1.0
  Ti  Ti3  1  0.000000  0.588911  0.000000  1.0
  Ge  Ge4  1  0.666667  0.333333  0.500000  1.0
  Ge  Ge5  1  0.000000  0.000000  0.000000  1.0
  Ge  Ge6  1  0.333333  0.666667  0.500000  1.0
  Pd  Pd7  1  0.000000  0.259976  0.500000  1.0
  Pd  Pd8  1  0.740024  0.740024  0.500000  1.0
  Pd  Pd9  1  0.259976  0.000000  0.500000  1.0
