# generated using pymatgen
data_Sr(ZnAs)2
_symmetry_space_group_name_H-M   'P 1'
_cell_length_a   4.26592588
_cell_length_b   4.26592589
_cell_length_c   7.31926465
_cell_angle_alpha   90.00000000
_cell_angle_beta   90.00000000
_cell_angle_gamma   119.99999995
_symmetry_Int_Tables_number   1
_chemical_formula_structural   Sr(ZnAs)2
_chemical_formula_sum   'Sr1 Zn2 As2'
_cell_volume   115.35188459
_cell_formula_units_Z   1
loop_
 _symmetry_equiv_pos_site_id
 _symmetry_equiv_pos_as_xyz
  1  'x, y, z'
loop_
 _atom_site_type_symbol
 _atom_site_label
 _atom_site_symmetry_multiplicity
 _atom_site_fract_x
 _atom_site_fract_y
 _atom_site_fract_z
 _atom_site_occupancy
  Sr  Sr1  1  0.000000  0.000000  0.000000  1.0
  Zn  Zn2  1  0.666667  0.333333  0.370594  1.0
  Zn  Zn3  1  0.333333  0.666667  0.629406  1.0
  As  As4  1  0.666667  0.333333  0.729355  1.0
  As  As5  1  0.333333  0.666667  0.270645  1.0
