# generated using pymatgen
data_Cs2Pt3Se4
_symmetry_space_group_name_H-M   'P 1'
_cell_length_a   6.69495536
_cell_length_b   6.69495537
_cell_length_c   8.01937715
_cell_angle_alpha   102.37508815
_cell_angle_beta   102.37508816
_cell_angle_gamma   119.11651212
_symmetry_Int_Tables_number   1
_chemical_formula_structural   Cs2Pt3Se4
_chemical_formula_sum   'Cs2 Pt3 Se4'
_cell_volume   284.54972837
_cell_formula_units_Z   1
loop_
 _symmetry_equiv_pos_site_id
 _symmetry_equiv_pos_as_xyz
  1  'x, y, z'
loop_
 _atom_site_type_symbol
 _atom_site_label
 _atom_site_symmetry_multiplicity
 _atom_site_fract_x
 _atom_site_fract_y
 _atom_site_fract_z
 _atom_site_occupancy
  Cs  Cs1  1  0.644966  0.644966  0.289933  1.0
  Cs  Cs2  1  0.355034  0.355034  0.710067  1.0
  Pt  Pt3  1  0.500000  0.000000  0.000000  1.0
  Pt  Pt4  1  0.000000  0.000000  0.000000  1.0
  Pt  Pt5  1  0.000000  0.500000  0.000000  1.0
  Se  Se6  1  0.724214  0.059975  0.784190  1.0
  Se  Se7  1  0.059975  0.724214  0.784190  1.0
  Se  Se8  1  0.275786  0.940025  0.215810  1.0
  Se  Se9  1  0.940025  0.275786  0.215810  1.0
