# generated using pymatgen
data_Zr2Te2P
_symmetry_space_group_name_H-M   'P 1'
_cell_length_a   10.40063527
_cell_length_b   10.40063527
_cell_length_c   10.40063527
_cell_angle_alpha   21.34896682
_cell_angle_beta   21.34896681
_cell_angle_gamma   21.34896680
_symmetry_Int_Tables_number   1
_chemical_formula_structural   Zr2Te2P
_chemical_formula_sum   'Zr2 Te2 P1'
_cell_volume   130.62312174
_cell_formula_units_Z   1
loop_
 _symmetry_equiv_pos_site_id
 _symmetry_equiv_pos_as_xyz
  1  'x, y, z'
loop_
 _atom_site_type_symbol
 _atom_site_label
 _atom_site_symmetry_multiplicity
 _atom_site_fract_x
 _atom_site_fract_y
 _atom_site_fract_z
 _atom_site_occupancy
  Zr  Zr1  1  0.619525  0.619525  0.619525  1.0
  Zr  Zr2  1  0.380475  0.380475  0.380475  1.0
  Te  Te3  1  0.224037  0.224037  0.224037  1.0
  Te  Te4  1  0.775963  0.775963  0.775963  1.0
  P  P5  1  0.000000  0.000000  0.000000  1.0
