# generated using pymatgen
data_Be2Mo
_symmetry_space_group_name_H-M   'P 1'
_cell_length_a   4.45061963
_cell_length_b   4.45061963
_cell_length_c   7.30156731
_cell_angle_alpha   90.00000000
_cell_angle_beta   90.00000000
_cell_angle_gamma   119.99861435
_symmetry_Int_Tables_number   1
_chemical_formula_structural   Be2Mo
_chemical_formula_sum   'Be8 Mo4'
_cell_volume   125.25461801
_cell_formula_units_Z   4
loop_
 _symmetry_equiv_pos_site_id
 _symmetry_equiv_pos_as_xyz
  1  'x, y, z'
loop_
 _atom_site_type_symbol
 _atom_site_label
 _atom_site_symmetry_multiplicity
 _atom_site_fract_x
 _atom_site_fract_y
 _atom_site_fract_z
 _atom_site_occupancy
  Be  Be1  1  0.000000  0.000000  0.500000  1.0
  Be  Be2  1  0.000000  0.000000  0.000000  1.0
  Be  Be3  1  0.169399  0.338788  0.750000  1.0
  Be  Be4  1  0.169384  0.830616  0.750000  1.0
  Be  Be5  1  0.661212  0.830601  0.750000  1.0
  Be  Be6  1  0.830601  0.661212  0.250000  1.0
  Be  Be7  1  0.830616  0.169384  0.250000  1.0
  Be  Be8  1  0.338788  0.169399  0.250000  1.0
  Mo  Mo9  1  0.666649  0.333351  0.563358  1.0
  Mo  Mo10  1  0.333351  0.666649  0.436642  1.0
  Mo  Mo11  1  0.333351  0.666649  0.063358  1.0
  Mo  Mo12  1  0.666649  0.333351  0.936642  1.0
