# generated using pymatgen
data_LuTe2
_symmetry_space_group_name_H-M   'P 1'
_cell_length_a   4.41589762
_cell_length_b   4.41589762
_cell_length_c   8.71554837
_cell_angle_alpha   90.00000000
_cell_angle_beta   90.00000000
_cell_angle_gamma   90.00000000
_symmetry_Int_Tables_number   1
_chemical_formula_structural   LuTe2
_chemical_formula_sum   'Lu2 Te4'
_cell_volume   169.95451615
_cell_formula_units_Z   2
loop_
 _symmetry_equiv_pos_site_id
 _symmetry_equiv_pos_as_xyz
  1  'x, y, z'
loop_
 _atom_site_type_symbol
 _atom_site_label
 _atom_site_symmetry_multiplicity
 _atom_site_fract_x
 _atom_site_fract_y
 _atom_site_fract_z
 _atom_site_occupancy
  Lu  Lu1  1  0.249998  0.249998  0.270844  1.0
  Lu  Lu2  1  0.749999  0.749999  0.729156  1.0
  Te  Te3  1  0.749999  0.249998  0.000000  1.0
  Te  Te4  1  0.249998  0.749999  0.000000  1.0
  Te  Te5  1  0.249998  0.249998  0.627608  1.0
  Te  Te6  1  0.749999  0.749999  0.372393  1.0
