# generated using pymatgen
data_TiSe2
_symmetry_space_group_name_H-M   'P 1'
_cell_length_a   3.54426224
_cell_length_b   3.54426224
_cell_length_c   6.69380567
_cell_angle_alpha   90.00000000
_cell_angle_beta   90.00000000
_cell_angle_gamma   119.99999998
_symmetry_Int_Tables_number   1
_chemical_formula_structural   TiSe2
_chemical_formula_sum   'Ti1 Se2'
_cell_volume   72.82079695
_cell_formula_units_Z   1
loop_
 _symmetry_equiv_pos_site_id
 _symmetry_equiv_pos_as_xyz
  1  'x, y, z'
loop_
 _atom_site_type_symbol
 _atom_site_label
 _atom_site_symmetry_multiplicity
 _atom_site_fract_x
 _atom_site_fract_y
 _atom_site_fract_z
 _atom_site_occupancy
  Ti  Ti1  1  0.000000  0.000000  0.000000  1.0
  Se  Se2  1  0.333333  0.666667  0.231181  1.0
  Se  Se3  1  0.666667  0.333333  0.768819  1.0
