# generated using pymatgen
data_Ca(BRh)2
_symmetry_space_group_name_H-M   'P 1'
_cell_length_a   5.51846957
_cell_length_b   5.51846957
_cell_length_c   6.09204719
_cell_angle_alpha   105.20982578
_cell_angle_beta   105.20982573
_cell_angle_gamma   114.88216999
_symmetry_Int_Tables_number   1
_chemical_formula_structural   Ca(BRh)2
_chemical_formula_sum   'Ca2 B4 Rh4'
_cell_volume   146.94940872
_cell_formula_units_Z   2
loop_
 _symmetry_equiv_pos_site_id
 _symmetry_equiv_pos_as_xyz
  1  'x, y, z'
loop_
 _atom_site_type_symbol
 _atom_site_label
 _atom_site_symmetry_multiplicity
 _atom_site_fract_x
 _atom_site_fract_y
 _atom_site_fract_z
 _atom_site_occupancy
  Ca  Ca1  1  0.875000  0.125000  0.250000  1.0
  Ca  Ca2  1  0.125000  0.875000  0.750000  1.0
  B  B3  1  0.550696  0.449304  0.250000  1.0
  B  B4  1  0.800696  0.199304  0.750000  1.0
  B  B5  1  0.199304  0.800696  0.250000  1.0
  B  B6  1  0.449304  0.550696  0.750000  1.0
  Rh  Rh7  1  0.505156  0.755156  0.510313  1.0
  Rh  Rh8  1  0.755156  0.505156  0.010313  1.0
  Rh  Rh9  1  0.494844  0.244844  0.489687  1.0
  Rh  Rh10  1  0.244844  0.494844  0.989687  1.0
