# generated using pymatgen
data_ZrSb
_symmetry_space_group_name_H-M   'P 1'
_cell_length_a   3.81734060
_cell_length_b   5.60776333
_cell_length_c   14.21265781
_cell_angle_alpha   90.00000000
_cell_angle_beta   90.00000000
_cell_angle_gamma   109.89893882
_symmetry_Int_Tables_number   1
_chemical_formula_structural   ZrSb
_chemical_formula_sum   'Zr6 Sb6'
_cell_volume   286.08148510
_cell_formula_units_Z   6
loop_
 _symmetry_equiv_pos_site_id
 _symmetry_equiv_pos_as_xyz
  1  'x, y, z'
loop_
 _atom_site_type_symbol
 _atom_site_label
 _atom_site_symmetry_multiplicity
 _atom_site_fract_x
 _atom_site_fract_y
 _atom_site_fract_z
 _atom_site_occupancy
  Zr  Zr1  1  0.380933  0.761865  0.750000  1.0
  Zr  Zr2  1  0.619067  0.238135  0.250000  1.0
  Zr  Zr3  1  0.071248  0.142496  0.891778  1.0
  Zr  Zr4  1  0.928752  0.857504  0.108222  1.0
  Zr  Zr5  1  0.928752  0.857504  0.391778  1.0
  Zr  Zr6  1  0.071248  0.142496  0.608222  1.0
  Sb  Sb7  1  0.669093  0.338185  0.750000  1.0
  Sb  Sb8  1  0.330907  0.661815  0.250000  1.0
  Sb  Sb9  1  0.642694  0.285389  0.450882  1.0
  Sb  Sb10  1  0.357306  0.714611  0.549118  1.0
  Sb  Sb11  1  0.357306  0.714611  0.950882  1.0
  Sb  Sb12  1  0.642694  0.285389  0.049118  1.0
