# generated using pymatgen
data_CaCd2
_symmetry_space_group_name_H-M   'P 1'
_cell_length_a   5.03088077
_cell_length_b   6.21842565
_cell_length_c   6.21842565
_cell_angle_alpha   72.28560451
_cell_angle_beta   66.13932295
_cell_angle_gamma   66.13932293
_symmetry_Int_Tables_number   1
_chemical_formula_structural   CaCd2
_chemical_formula_sum   'Ca2 Cd4'
_cell_volume   160.38873451
_cell_formula_units_Z   2
loop_
 _symmetry_equiv_pos_site_id
 _symmetry_equiv_pos_as_xyz
  1  'x, y, z'
loop_
 _atom_site_type_symbol
 _atom_site_label
 _atom_site_symmetry_multiplicity
 _atom_site_fract_x
 _atom_site_fract_y
 _atom_site_fract_z
 _atom_site_occupancy
  Ca  Ca1  1  0.474708  0.275292  0.775292  1.0
  Ca  Ca2  1  0.525292  0.724708  0.224708  1.0
  Cd  Cd3  1  0.834216  0.135939  0.195630  1.0
  Cd  Cd4  1  0.165784  0.864061  0.804370  1.0
  Cd  Cd5  1  0.165784  0.304370  0.364061  1.0
  Cd  Cd6  1  0.834216  0.695630  0.635939  1.0
