# generated using pymatgen
data_Ba2YTaO6
_symmetry_space_group_name_H-M   'P 1'
_cell_length_a   6.02546379
_cell_length_b   6.02546379
_cell_length_c   6.04146352
_cell_angle_alpha   119.91243290
_cell_angle_beta   119.91243287
_cell_angle_gamma   89.99999999
_symmetry_Int_Tables_number   1
_chemical_formula_structural   Ba2YTaO6
_chemical_formula_sum   'Ba2 Y1 Ta1 O6'
_cell_volume   155.50835306
_cell_formula_units_Z   1
loop_
 _symmetry_equiv_pos_site_id
 _symmetry_equiv_pos_as_xyz
  1  'x, y, z'
loop_
 _atom_site_type_symbol
 _atom_site_label
 _atom_site_symmetry_multiplicity
 _atom_site_fract_x
 _atom_site_fract_y
 _atom_site_fract_z
 _atom_site_occupancy
  Ba  Ba1  1  0.250000  0.750000  0.500000  1.0
  Ba  Ba2  1  0.750000  0.250000  0.500000  1.0
  Y  Y3  1  0.000000  0.000000  0.000000  1.0
  Ta  Ta4  1  0.500000  0.500000  0.000000  1.0
  O  O5  1  0.761405  0.708989  0.000000  1.0
  O  O6  1  0.291011  0.761405  0.000000  1.0
  O  O7  1  0.708989  0.238595  0.000000  1.0
  O  O8  1  0.238595  0.291011  0.000000  1.0
  O  O9  1  0.264498  0.264498  0.528996  1.0
  O  O10  1  0.735502  0.735502  0.471004  1.0
