# generated using pymatgen
data_Li5Mg
_symmetry_space_group_name_H-M   'P 1'
_cell_length_a   5.27243676
_cell_length_b   5.27245542
_cell_length_c   5.85294825
_cell_angle_alpha   116.77014667
_cell_angle_beta   63.23010384
_cell_angle_gamma   119.99987119
_symmetry_Int_Tables_number   1
_chemical_formula_structural   Li5Mg
_chemical_formula_sum   'Li5 Mg1'
_cell_volume   120.34966079
_cell_formula_units_Z   1
loop_
 _symmetry_equiv_pos_site_id
 _symmetry_equiv_pos_as_xyz
  1  'x, y, z'
loop_
 _atom_site_type_symbol
 _atom_site_label
 _atom_site_symmetry_multiplicity
 _atom_site_fract_x
 _atom_site_fract_y
 _atom_site_fract_z
 _atom_site_occupancy
  Li  Li1  1  0.000738  0.000000  0.000000  1.0
  Li  Li2  1  0.665929  0.332593  0.999999  1.0
  Li  Li3  1  0.333334  0.667407  0.000001  1.0
  Li  Li4  1  0.500081  0.833250  0.499758  1.0
  Li  Li5  1  0.166589  0.166751  0.500243  1.0
  Mg  Mg6  1  0.833325  0.500000  0.500000  1.0
