# generated using pymatgen
data_Ba3(AlGe)2
_symmetry_space_group_name_H-M   'P 1'
_cell_length_a   4.36820995
_cell_length_b   5.15846483
_cell_length_c   10.66527105
_cell_angle_alpha   103.99918428
_cell_angle_beta   101.81700914
_cell_angle_gamma   90.00000001
_symmetry_Int_Tables_number   1
_chemical_formula_structural   Ba3(AlGe)2
_chemical_formula_sum   'Ba3 Al2 Ge2'
_cell_volume   227.93279623
_cell_formula_units_Z   1
loop_
 _symmetry_equiv_pos_site_id
 _symmetry_equiv_pos_as_xyz
  1  'x, y, z'
loop_
 _atom_site_type_symbol
 _atom_site_label
 _atom_site_symmetry_multiplicity
 _atom_site_fract_x
 _atom_site_fract_y
 _atom_site_fract_z
 _atom_site_occupancy
  Ba  Ba1  1  0.816519  0.816511  0.633038  1.0
  Ba  Ba2  1  0.500000  0.000000  0.000000  1.0
  Ba  Ba3  1  0.183481  0.183489  0.366962  1.0
  Al  Al4  1  0.935556  0.435567  0.871113  1.0
  Al  Al5  1  0.064444  0.564433  0.128887  1.0
  Ge  Ge6  1  0.364996  0.365046  0.729992  1.0
  Ge  Ge7  1  0.635004  0.634954  0.270008  1.0
