# generated using pymatgen
data_K(USe3)2
_symmetry_space_group_name_H-M   'P 1'
_cell_length_a   4.05302601
_cell_length_b   5.53577611
_cell_length_c   11.58192173
_cell_angle_alpha   104.03528500
_cell_angle_beta   100.07703377
_cell_angle_gamma   90.00000002
_symmetry_Int_Tables_number   1
_chemical_formula_structural   K(USe3)2
_chemical_formula_sum   'K1 U2 Se6'
_cell_volume   247.96762961
_cell_formula_units_Z   1
loop_
 _symmetry_equiv_pos_site_id
 _symmetry_equiv_pos_as_xyz
  1  'x, y, z'
loop_
 _atom_site_type_symbol
 _atom_site_label
 _atom_site_symmetry_multiplicity
 _atom_site_fract_x
 _atom_site_fract_y
 _atom_site_fract_z
 _atom_site_occupancy
  K  K1  1  0.000000  0.000000  0.000000  1.0
  U  U2  1  0.818925  0.317527  0.637849  1.0
  U  U3  1  0.181075  0.682473  0.362151  1.0
  Se  Se4  1  0.773910  0.773298  0.547819  1.0
  Se  Se5  1  0.608022  0.854474  0.216044  1.0
  Se  Se6  1  0.391978  0.145526  0.783956  1.0
  Se  Se7  1  0.226090  0.226702  0.452181  1.0
  Se  Se8  1  0.607989  0.359980  0.215978  1.0
  Se  Se9  1  0.392011  0.640020  0.784022  1.0
