# generated using pymatgen
data_Ca3(AlGe)2
_symmetry_space_group_name_H-M   'P 1'
_cell_length_a   4.12674696
_cell_length_b   4.56400774
_cell_length_c   9.82653438
_cell_angle_alpha   103.42359619
_cell_angle_beta   102.12116701
_cell_angle_gamma   90.00000006
_symmetry_Int_Tables_number   1
_chemical_formula_structural   Ca3(AlGe)2
_chemical_formula_sum   'Ca3 Al2 Ge2'
_cell_volume   175.77682126
_cell_formula_units_Z   1
loop_
 _symmetry_equiv_pos_site_id
 _symmetry_equiv_pos_as_xyz
  1  'x, y, z'
loop_
 _atom_site_type_symbol
 _atom_site_label
 _atom_site_symmetry_multiplicity
 _atom_site_fract_x
 _atom_site_fract_y
 _atom_site_fract_z
 _atom_site_occupancy
  Ca  Ca1  1  0.500000  0.000000  0.000000  1.0
  Ca  Ca2  1  0.185773  0.185787  0.371545  1.0
  Ca  Ca3  1  0.814227  0.814213  0.628455  1.0
  Al  Al4  1  0.931985  0.431886  0.863971  1.0
  Al  Al5  1  0.068015  0.568114  0.136029  1.0
  Ge  Ge6  1  0.354006  0.353974  0.708012  1.0
  Ge  Ge7  1  0.645994  0.646026  0.291988  1.0
