# generated using pymatgen
data_Sr2TaGaO6
_symmetry_space_group_name_H-M   'P 1'
_cell_length_a   5.61979892
_cell_length_b   5.61979893
_cell_length_c   5.64607453
_cell_angle_alpha   119.84617315
_cell_angle_beta   119.84617313
_cell_angle_gamma   89.99999988
_symmetry_Int_Tables_number   1
_chemical_formula_structural   Sr2TaGaO6
_chemical_formula_sum   'Sr2 Ta1 Ga1 O6'
_cell_volume   126.67189507
_cell_formula_units_Z   1
loop_
 _symmetry_equiv_pos_site_id
 _symmetry_equiv_pos_as_xyz
  1  'x, y, z'
loop_
 _atom_site_type_symbol
 _atom_site_label
 _atom_site_symmetry_multiplicity
 _atom_site_fract_x
 _atom_site_fract_y
 _atom_site_fract_z
 _atom_site_occupancy
  Sr  Sr1  1  0.250000  0.750000  0.500000  1.0
  Sr  Sr2  1  0.750000  0.250000  0.500000  1.0
  Ta  Ta3  1  0.500000  0.500000  0.000000  1.0
  Ga  Ga4  1  0.000000  0.000000  0.000000  1.0
  O  O5  1  0.717401  0.781374  0.000000  1.0
  O  O6  1  0.218626  0.717401  0.000000  1.0
  O  O7  1  0.781374  0.282599  0.000000  1.0
  O  O8  1  0.282599  0.218626  0.000000  1.0
  O  O9  1  0.250861  0.250861  0.501721  1.0
  O  O10  1  0.749139  0.749139  0.498279  1.0
