# generated using pymatgen
data_Sc2AlSi2
_symmetry_space_group_name_H-M   'P 1'
_cell_length_a   4.00449513
_cell_length_b   6.60495454
_cell_length_c   6.60495454
_cell_angle_alpha   90.00000000
_cell_angle_beta   90.00000000
_cell_angle_gamma   90.00000000
_symmetry_Int_Tables_number   1
_chemical_formula_structural   Sc2AlSi2
_chemical_formula_sum   'Sc4 Al2 Si4'
_cell_volume   174.69779986
_cell_formula_units_Z   2
loop_
 _symmetry_equiv_pos_site_id
 _symmetry_equiv_pos_as_xyz
  1  'x, y, z'
loop_
 _atom_site_type_symbol
 _atom_site_label
 _atom_site_symmetry_multiplicity
 _atom_site_fract_x
 _atom_site_fract_y
 _atom_site_fract_z
 _atom_site_occupancy
  Sc  Sc1  1  0.500000  0.675486  0.824514  1.0
  Sc  Sc2  1  0.500000  0.324514  0.175486  1.0
  Sc  Sc3  1  0.500000  0.175486  0.675486  1.0
  Sc  Sc4  1  0.500000  0.824514  0.324514  1.0
  Al  Al5  1  0.000000  0.000000  0.000000  1.0
  Al  Al6  1  0.000000  0.500000  0.500000  1.0
  Si  Si7  1  0.000000  0.873770  0.626230  1.0
  Si  Si8  1  0.000000  0.126230  0.373770  1.0
  Si  Si9  1  0.000000  0.373770  0.873770  1.0
  Si  Si10  1  0.000000  0.626230  0.126230  1.0
