# generated using pymatgen
data_CuS2
_symmetry_space_group_name_H-M   'P 1'
_cell_length_a   5.79930434
_cell_length_b   5.79904330
_cell_length_c   5.80009856
_cell_angle_alpha   90.00000000
_cell_angle_beta   89.99015647
_cell_angle_gamma   90.00000000
_symmetry_Int_Tables_number   1
_chemical_formula_structural   CuS2
_chemical_formula_sum   'Cu4 S8'
_cell_volume   195.05973020
_cell_formula_units_Z   4
loop_
 _symmetry_equiv_pos_site_id
 _symmetry_equiv_pos_as_xyz
  1  'x, y, z'
loop_
 _atom_site_type_symbol
 _atom_site_label
 _atom_site_symmetry_multiplicity
 _atom_site_fract_x
 _atom_site_fract_y
 _atom_site_fract_z
 _atom_site_occupancy
  Cu  Cu1  1  0.000000  0.500000  0.500000  1.0
  Cu  Cu2  1  0.000000  0.000000  0.000000  1.0
  Cu  Cu3  1  0.500000  0.500000  0.000000  1.0
  Cu  Cu4  1  0.500000  0.000000  0.500000  1.0
  S  S5  1  0.101159  0.601177  0.898841  1.0
  S  S6  1  0.898841  0.398823  0.101159  1.0
  S  S7  1  0.398828  0.101176  0.898844  1.0
  S  S8  1  0.898841  0.101177  0.601159  1.0
  S  S9  1  0.601172  0.601176  0.601156  1.0
  S  S10  1  0.398828  0.398824  0.398844  1.0
  S  S11  1  0.101159  0.898823  0.398841  1.0
  S  S12  1  0.601172  0.898824  0.101156  1.0
