# generated using pymatgen
data_Sr(GeRh)2
_symmetry_space_group_name_H-M   'P 1'
_cell_length_a   4.23209045
_cell_length_b   4.23209045
_cell_length_c   6.23684009
_cell_angle_alpha   109.83311261
_cell_angle_beta   109.83311272
_cell_angle_gamma   90.00000001
_symmetry_Int_Tables_number   1
_chemical_formula_structural   Sr(GeRh)2
_chemical_formula_sum   'Sr1 Ge2 Rh2'
_cell_volume   98.00690251
_cell_formula_units_Z   1
loop_
 _symmetry_equiv_pos_site_id
 _symmetry_equiv_pos_as_xyz
  1  'x, y, z'
loop_
 _atom_site_type_symbol
 _atom_site_label
 _atom_site_symmetry_multiplicity
 _atom_site_fract_x
 _atom_site_fract_y
 _atom_site_fract_z
 _atom_site_occupancy
  Sr  Sr1  1  0.000000  0.000000  0.000000  1.0
  Ge  Ge2  1  0.632378  0.632378  0.264756  1.0
  Ge  Ge3  1  0.367622  0.367622  0.735244  1.0
  Rh  Rh4  1  0.750000  0.250000  0.500000  1.0
  Rh  Rh5  1  0.250000  0.750000  0.500000  1.0
