# generated using pymatgen
data_YCd3
_symmetry_space_group_name_H-M   'P 1'
_cell_length_a   4.90342104
_cell_length_b   6.55082469
_cell_length_c   6.55082470
_cell_angle_alpha   113.71629936
_cell_angle_beta   90.00000000
_cell_angle_gamma   90.00000000
_symmetry_Int_Tables_number   1
_chemical_formula_structural   YCd3
_chemical_formula_sum   'Y2 Cd6'
_cell_volume   192.65148445
_cell_formula_units_Z   2
loop_
 _symmetry_equiv_pos_site_id
 _symmetry_equiv_pos_as_xyz
  1  'x, y, z'
loop_
 _atom_site_type_symbol
 _atom_site_label
 _atom_site_symmetry_multiplicity
 _atom_site_fract_x
 _atom_site_fract_y
 _atom_site_fract_z
 _atom_site_occupancy
  Y  Y1  1  0.250000  0.636213  0.363787  1.0
  Y  Y2  1  0.750000  0.363787  0.636213  1.0
  Cd  Cd3  1  0.750000  0.309744  0.121482  1.0
  Cd  Cd4  1  0.250000  0.690256  0.878518  1.0
  Cd  Cd5  1  0.250000  0.121482  0.309744  1.0
  Cd  Cd6  1  0.750000  0.878518  0.690256  1.0
  Cd  Cd7  1  0.250000  0.175377  0.824623  1.0
  Cd  Cd8  1  0.750000  0.824623  0.175377  1.0
