# generated using pymatgen
data_Sn2Au
_symmetry_space_group_name_H-M   'P 1'
_cell_length_a   7.02769126
_cell_length_b   7.18515453
_cell_length_c   12.14447294
_cell_angle_alpha   90.00000000
_cell_angle_beta   90.00000000
_cell_angle_gamma   90.00000000
_symmetry_Int_Tables_number   1
_chemical_formula_structural   Sn2Au
_chemical_formula_sum   'Sn16 Au8'
_cell_volume   613.23574030
_cell_formula_units_Z   8
loop_
 _symmetry_equiv_pos_site_id
 _symmetry_equiv_pos_as_xyz
  1  'x, y, z'
loop_
 _atom_site_type_symbol
 _atom_site_label
 _atom_site_symmetry_multiplicity
 _atom_site_fract_x
 _atom_site_fract_y
 _atom_site_fract_z
 _atom_site_occupancy
  Sn  Sn1  1  0.628170  0.526402  0.325176  1.0
  Sn  Sn2  1  0.128170  0.973598  0.674824  1.0
  Sn  Sn3  1  0.371830  0.026402  0.174824  1.0
  Sn  Sn4  1  0.871830  0.473598  0.825176  1.0
  Sn  Sn5  1  0.371830  0.473598  0.674824  1.0
  Sn  Sn6  1  0.871830  0.026402  0.325176  1.0
  Sn  Sn7  1  0.628170  0.973598  0.825176  1.0
  Sn  Sn8  1  0.128170  0.526402  0.174824  1.0
  Sn  Sn9  1  0.854609  0.248342  0.088078  1.0
  Sn  Sn10  1  0.354609  0.251658  0.911922  1.0
  Sn  Sn11  1  0.145391  0.748342  0.411922  1.0
  Sn  Sn12  1  0.645391  0.751658  0.588078  1.0
  Sn  Sn13  1  0.145391  0.751658  0.911922  1.0
  Sn  Sn14  1  0.645391  0.748342  0.088078  1.0
  Sn  Sn15  1  0.854609  0.251658  0.588078  1.0
  Sn  Sn16  1  0.354609  0.248342  0.411922  1.0
  Au  Au17  1  0.512235  0.888441  0.382848  1.0
  Au  Au18  1  0.012235  0.611559  0.617152  1.0
  Au  Au19  1  0.487765  0.388441  0.117152  1.0
  Au  Au20  1  0.987765  0.111559  0.882848  1.0
  Au  Au21  1  0.487765  0.111559  0.617152  1.0
  Au  Au22  1  0.987765  0.388441  0.382848  1.0
  Au  Au23  1  0.512235  0.611559  0.882848  1.0
  Au  Au24  1  0.012235  0.888441  0.117152  1.0
