# generated using pymatgen
data_Y(BIr)2
_symmetry_space_group_name_H-M   'P 1'
_cell_length_a   5.50696136
_cell_length_b   5.50696135
_cell_length_c   6.15978922
_cell_angle_alpha   104.77746930
_cell_angle_beta   104.77746921
_cell_angle_gamma   115.42916738
_symmetry_Int_Tables_number   1
_chemical_formula_structural   Y(BIr)2
_chemical_formula_sum   'Y2 B4 Ir4'
_cell_volume   148.22899567
_cell_formula_units_Z   2
loop_
 _symmetry_equiv_pos_site_id
 _symmetry_equiv_pos_as_xyz
  1  'x, y, z'
loop_
 _atom_site_type_symbol
 _atom_site_label
 _atom_site_symmetry_multiplicity
 _atom_site_fract_x
 _atom_site_fract_y
 _atom_site_fract_z
 _atom_site_occupancy
  Y  Y1  1  0.125000  0.875000  0.750000  1.0
  Y  Y2  1  0.875000  0.125000  0.250000  1.0
  B  B3  1  0.806507  0.193493  0.750000  1.0
  B  B4  1  0.556507  0.443493  0.250000  1.0
  B  B5  1  0.443493  0.556507  0.750000  1.0
  B  B6  1  0.193493  0.806507  0.250000  1.0
  Ir  Ir7  1  0.753025  0.503025  0.006051  1.0
  Ir  Ir8  1  0.503025  0.753025  0.506051  1.0
  Ir  Ir9  1  0.246975  0.496975  0.993949  1.0
  Ir  Ir10  1  0.496975  0.246975  0.493949  1.0
