# generated using pymatgen
data_YbPO4
_symmetry_space_group_name_H-M   'P 1'
_cell_length_a   4.89517807
_cell_length_b   4.89517808
_cell_length_c   6.66577238
_cell_angle_alpha   111.54227425
_cell_angle_beta   111.54227416
_cell_angle_gamma   89.99999997
_symmetry_Int_Tables_number   1
_chemical_formula_structural   YbPO4
_chemical_formula_sum   'Yb2 P2 O8'
_cell_volume   136.50606592
_cell_formula_units_Z   2
loop_
 _symmetry_equiv_pos_site_id
 _symmetry_equiv_pos_as_xyz
  1  'x, y, z'
loop_
 _atom_site_type_symbol
 _atom_site_label
 _atom_site_symmetry_multiplicity
 _atom_site_fract_x
 _atom_site_fract_y
 _atom_site_fract_z
 _atom_site_occupancy
  Yb  Yb1  1  0.375000  0.125000  0.750000  1.0
  Yb  Yb2  1  0.625000  0.875000  0.250000  1.0
  P  P3  1  0.875000  0.625000  0.750000  1.0
  P  P4  1  0.125000  0.375000  0.250000  1.0
  O  O5  1  0.705325  0.585330  0.896077  1.0
  O  O6  1  0.310748  0.205325  0.396077  1.0
  O  O7  1  0.085330  0.690752  0.396077  1.0
  O  O8  1  0.190752  0.810748  0.896077  1.0
  O  O9  1  0.809248  0.189252  0.103923  1.0
  O  O10  1  0.914670  0.309248  0.603923  1.0
  O  O11  1  0.689252  0.794675  0.603923  1.0
  O  O12  1  0.294675  0.414670  0.103923  1.0
