# generated using pymatgen
data_Ti2Te2P
_symmetry_space_group_name_H-M   'P 1'
_cell_length_a   10.15733359
_cell_length_b   10.15733359
_cell_length_c   10.15733359
_cell_angle_alpha   20.73755832
_cell_angle_beta   20.73755831
_cell_angle_gamma   20.73755830
_symmetry_Int_Tables_number   1
_chemical_formula_structural   Ti2Te2P
_chemical_formula_sum   'Ti2 Te2 P1'
_cell_volume   115.02863128
_cell_formula_units_Z   1
loop_
 _symmetry_equiv_pos_site_id
 _symmetry_equiv_pos_as_xyz
  1  'x, y, z'
loop_
 _atom_site_type_symbol
 _atom_site_label
 _atom_site_symmetry_multiplicity
 _atom_site_fract_x
 _atom_site_fract_y
 _atom_site_fract_z
 _atom_site_occupancy
  Ti  Ti1  1  0.377739  0.377739  0.377739  1.0
  Ti  Ti2  1  0.622261  0.622261  0.622261  1.0
  Te  Te3  1  0.771970  0.771970  0.771970  1.0
  Te  Te4  1  0.228030  0.228030  0.228030  1.0
  P  P5  1  0.000000  0.000000  0.000000  1.0
