# generated using pymatgen
data_PrAl3
_symmetry_space_group_name_H-M   'P 1'
_cell_length_a   6.53209846
_cell_length_b   6.53209845
_cell_length_c   4.66523894
_cell_angle_alpha   90.00000000
_cell_angle_beta   90.00000000
_cell_angle_gamma   120.00000003
_symmetry_Int_Tables_number   1
_chemical_formula_structural   PrAl3
_chemical_formula_sum   'Pr2 Al6'
_cell_volume   172.38916558
_cell_formula_units_Z   2
loop_
 _symmetry_equiv_pos_site_id
 _symmetry_equiv_pos_as_xyz
  1  'x, y, z'
loop_
 _atom_site_type_symbol
 _atom_site_label
 _atom_site_symmetry_multiplicity
 _atom_site_fract_x
 _atom_site_fract_y
 _atom_site_fract_z
 _atom_site_occupancy
  Pr  Pr1  1  0.666667  0.333333  0.750000  1.0
  Pr  Pr2  1  0.333333  0.666667  0.250000  1.0
  Al  Al3  1  0.140214  0.280428  0.750000  1.0
  Al  Al4  1  0.859786  0.140214  0.250000  1.0
  Al  Al5  1  0.859786  0.719572  0.250000  1.0
  Al  Al6  1  0.140214  0.859786  0.750000  1.0
  Al  Al7  1  0.719572  0.859786  0.750000  1.0
  Al  Al8  1  0.280428  0.140214  0.250000  1.0
