# generated using pymatgen
data_Dy2C
_symmetry_space_group_name_H-M   'P 1'
_cell_length_a   6.49340832
_cell_length_b   6.49340832
_cell_length_c   6.49340832
_cell_angle_alpha   32.12275915
_cell_angle_beta   32.12275914
_cell_angle_gamma   32.12275914
_symmetry_Int_Tables_number   1
_chemical_formula_structural   Dy2C
_chemical_formula_sum   'Dy2 C1'
_cell_volume   68.79346507
_cell_formula_units_Z   1
loop_
 _symmetry_equiv_pos_site_id
 _symmetry_equiv_pos_as_xyz
  1  'x, y, z'
loop_
 _atom_site_type_symbol
 _atom_site_label
 _atom_site_symmetry_multiplicity
 _atom_site_fract_x
 _atom_site_fract_y
 _atom_site_fract_z
 _atom_site_occupancy
  Dy  Dy1  1  0.260270  0.260270  0.260270  1.0
  Dy  Dy2  1  0.739730  0.739730  0.739730  1.0
  C  C3  1  0.000000  0.000000  0.000000  1.0
