# generated using pymatgen
data_RbCeSe2
_symmetry_space_group_name_H-M   'P 1'
_cell_length_a   8.38995010
_cell_length_b   8.38995010
_cell_length_c   8.38995011
_cell_angle_alpha   30.53714927
_cell_angle_beta   30.53714929
_cell_angle_gamma   30.53714926
_symmetry_Int_Tables_number   1
_chemical_formula_structural   RbCeSe2
_chemical_formula_sum   'Rb1 Ce1 Se2'
_cell_volume   135.15957054
_cell_formula_units_Z   1
loop_
 _symmetry_equiv_pos_site_id
 _symmetry_equiv_pos_as_xyz
  1  'x, y, z'
loop_
 _atom_site_type_symbol
 _atom_site_label
 _atom_site_symmetry_multiplicity
 _atom_site_fract_x
 _atom_site_fract_y
 _atom_site_fract_z
 _atom_site_occupancy
  Rb  Rb1  1  0.000000  0.000000  0.000000  1.0
  Ce  Ce2  1  0.500000  0.500000  0.500000  1.0
  Se  Se3  1  0.233165  0.233165  0.233165  1.0
  Se  Se4  1  0.766835  0.766835  0.766835  1.0
