# generated using pymatgen
data_RbPrSe2
_symmetry_space_group_name_H-M   'P 1'
_cell_length_a   8.42588489
_cell_length_b   8.42588489
_cell_length_c   8.42588489
_cell_angle_alpha   30.37942913
_cell_angle_beta   30.37942916
_cell_angle_gamma   30.37942917
_symmetry_Int_Tables_number   1
_chemical_formula_structural   RbPrSe2
_chemical_formula_sum   'Rb1 Pr1 Se2'
_cell_volume   135.59583892
_cell_formula_units_Z   1
loop_
 _symmetry_equiv_pos_site_id
 _symmetry_equiv_pos_as_xyz
  1  'x, y, z'
loop_
 _atom_site_type_symbol
 _atom_site_label
 _atom_site_symmetry_multiplicity
 _atom_site_fract_x
 _atom_site_fract_y
 _atom_site_fract_z
 _atom_site_occupancy
  Rb  Rb1  1  0.000000  0.000000  0.000000  1.0
  Pr  Pr2  1  0.500000  0.500000  0.500000  1.0
  Se  Se3  1  0.234039  0.234039  0.234039  1.0
  Se  Se4  1  0.765961  0.765961  0.765961  1.0
