# generated using pymatgen
data_In4SbTe3
_symmetry_space_group_name_H-M   'P 1'
_cell_length_a   8.83811760
_cell_length_b   11.71277127
_cell_length_c   7.63835351
_cell_angle_alpha   29.26368274
_cell_angle_beta   54.69270229
_cell_angle_gamma   40.72265468
_symmetry_Int_Tables_number   1
_chemical_formula_structural   In4SbTe3
_chemical_formula_sum   'In4 Sb1 Te3'
_cell_volume   243.43614513
_cell_formula_units_Z   1
loop_
 _symmetry_equiv_pos_site_id
 _symmetry_equiv_pos_as_xyz
  1  'x, y, z'
loop_
 _atom_site_type_symbol
 _atom_site_label
 _atom_site_symmetry_multiplicity
 _atom_site_fract_x
 _atom_site_fract_y
 _atom_site_fract_z
 _atom_site_occupancy
  In  In1  1  0.999433  0.001429  0.002987  1.0
  In  In2  1  0.501974  0.991751  0.011125  1.0
  In  In3  1  0.253950  0.497358  0.000463  1.0
  In  In4  1  0.742380  0.508774  0.997211  1.0
  Sb  Sb5  1  0.500659  0.496492  0.505539  1.0
  Te  Te6  1  0.246839  0.005914  0.492846  1.0
  Te  Te7  1  0.746861  0.004525  0.498899  1.0
  Te  Te8  1  0.001865  0.501475  0.499704  1.0
