# generated using pymatgen
data_MgTe2
_symmetry_space_group_name_H-M   'P 1'
_cell_length_a   7.10889746
_cell_length_b   7.10889746
_cell_length_c   7.10889746
_cell_angle_alpha   90.00000000
_cell_angle_beta   90.00000000
_cell_angle_gamma   90.00000000
_symmetry_Int_Tables_number   1
_chemical_formula_structural   MgTe2
_chemical_formula_sum   'Mg4 Te8'
_cell_volume   359.25824979
_cell_formula_units_Z   4
loop_
 _symmetry_equiv_pos_site_id
 _symmetry_equiv_pos_as_xyz
  1  'x, y, z'
loop_
 _atom_site_type_symbol
 _atom_site_label
 _atom_site_symmetry_multiplicity
 _atom_site_fract_x
 _atom_site_fract_y
 _atom_site_fract_z
 _atom_site_occupancy
  Mg  Mg1  1  0.000000  0.000000  0.000000  1.0
  Mg  Mg2  1  0.500000  0.000000  0.500000  1.0
  Mg  Mg3  1  0.500000  0.500000  0.000000  1.0
  Mg  Mg4  1  0.000000  0.500000  0.500000  1.0
  Te  Te5  1  0.386685  0.386685  0.386685  1.0
  Te  Te6  1  0.113315  0.613315  0.886685  1.0
  Te  Te7  1  0.886685  0.113315  0.613315  1.0
  Te  Te8  1  0.613315  0.886685  0.113315  1.0
  Te  Te9  1  0.613315  0.613315  0.613315  1.0
  Te  Te10  1  0.886685  0.386685  0.113315  1.0
  Te  Te11  1  0.113315  0.886685  0.386685  1.0
  Te  Te12  1  0.386685  0.113315  0.886685  1.0
