# generated using pymatgen
data_BaGe2
_symmetry_space_group_name_H-M   'P 1'
_cell_length_a   4.82627975
_cell_length_b   4.82627975
_cell_length_c   8.19955151
_cell_angle_alpha   107.11565384
_cell_angle_beta   107.11565380
_cell_angle_gamma   90.00000005
_symmetry_Int_Tables_number   1
_chemical_formula_structural   BaGe2
_chemical_formula_sum   'Ba2 Ge4'
_cell_volume   173.66340329
_cell_formula_units_Z   2
loop_
 _symmetry_equiv_pos_site_id
 _symmetry_equiv_pos_as_xyz
  1  'x, y, z'
loop_
 _atom_site_type_symbol
 _atom_site_label
 _atom_site_symmetry_multiplicity
 _atom_site_fract_x
 _atom_site_fract_y
 _atom_site_fract_z
 _atom_site_occupancy
  Ba  Ba1  1  0.875000  0.625000  0.250000  1.0
  Ba  Ba2  1  0.125000  0.375000  0.750000  1.0
  Ge  Ge3  1  0.708121  0.958121  0.916242  1.0
  Ge  Ge4  1  0.458121  0.208121  0.416243  1.0
  Ge  Ge5  1  0.541879  0.791879  0.583758  1.0
  Ge  Ge6  1  0.291879  0.041879  0.083757  1.0
