# generated using pymatgen
data_Zn3P2
_symmetry_space_group_name_H-M   'P 1'
_cell_length_a   8.12069138
_cell_length_b   8.12069138
_cell_length_c   11.46658978
_cell_angle_alpha   90.00000000
_cell_angle_beta   90.00000000
_cell_angle_gamma   90.00000000
_symmetry_Int_Tables_number   1
_chemical_formula_structural   Zn3P2
_chemical_formula_sum   'Zn24 P16'
_cell_volume   756.17146967
_cell_formula_units_Z   8
loop_
 _symmetry_equiv_pos_site_id
 _symmetry_equiv_pos_as_xyz
  1  'x, y, z'
loop_
 _atom_site_type_symbol
 _atom_site_label
 _atom_site_symmetry_multiplicity
 _atom_site_fract_x
 _atom_site_fract_y
 _atom_site_fract_z
 _atom_site_occupancy
  Zn  Zn1  1  0.250000  0.967082  0.856249  1.0
  Zn  Zn2  1  0.532918  0.250000  0.356249  1.0
  Zn  Zn3  1  0.967082  0.250000  0.356249  1.0
  Zn  Zn4  1  0.750000  0.032918  0.143751  1.0
  Zn  Zn5  1  0.750000  0.467082  0.143751  1.0
  Zn  Zn6  1  0.250000  0.532918  0.856249  1.0
  Zn  Zn7  1  0.467082  0.750000  0.643751  1.0
  Zn  Zn8  1  0.032918  0.750000  0.643751  1.0
  Zn  Zn9  1  0.250000  0.033043  0.135170  1.0
  Zn  Zn10  1  0.466957  0.250000  0.635170  1.0
  Zn  Zn11  1  0.033043  0.250000  0.635170  1.0
  Zn  Zn12  1  0.750000  0.966957  0.864830  1.0
  Zn  Zn13  1  0.750000  0.533043  0.864830  1.0
  Zn  Zn14  1  0.250000  0.466957  0.135170  1.0
  Zn  Zn15  1  0.533043  0.750000  0.364830  1.0
  Zn  Zn16  1  0.966957  0.750000  0.364830  1.0
  Zn  Zn17  1  0.250000  0.996795  0.398155  1.0
  Zn  Zn18  1  0.503205  0.250000  0.898155  1.0
  Zn  Zn19  1  0.996795  0.250000  0.898155  1.0
  Zn  Zn20  1  0.750000  0.003205  0.601845  1.0
  Zn  Zn21  1  0.750000  0.496795  0.601845  1.0
  Zn  Zn22  1  0.250000  0.503205  0.398155  1.0
  Zn  Zn23  1  0.496795  0.750000  0.101845  1.0
  Zn  Zn24  1  0.003205  0.750000  0.101845  1.0
  P  P25  1  0.250000  0.750000  0.996106  1.0
  P  P26  1  0.750000  0.250000  0.496106  1.0
  P  P27  1  0.750000  0.250000  0.003894  1.0
  P  P28  1  0.250000  0.750000  0.503894  1.0
  P  P29  1  0.250000  0.250000  0.995801  1.0
  P  P30  1  0.250000  0.250000  0.495801  1.0
  P  P31  1  0.750000  0.750000  0.004199  1.0
  P  P32  1  0.750000  0.750000  0.504199  1.0
  P  P33  1  0.504391  0.004391  0.750000  1.0
  P  P34  1  0.495609  0.504391  0.250000  1.0
  P  P35  1  0.004391  0.995609  0.250000  1.0
  P  P36  1  0.995609  0.495609  0.750000  1.0
  P  P37  1  0.495609  0.995609  0.250000  1.0
  P  P38  1  0.504391  0.495609  0.750000  1.0
  P  P39  1  0.995609  0.004391  0.750000  1.0
  P  P40  1  0.004391  0.504391  0.250000  1.0
