# generated using pymatgen
data_SrPdF4
_symmetry_space_group_name_H-M   'P 1'
_cell_length_a   5.92983774
_cell_length_b   5.92983774
_cell_length_c   6.84298413
_cell_angle_alpha   115.67581159
_cell_angle_beta   115.67581166
_cell_angle_gamma   90.00000002
_symmetry_Int_Tables_number   1
_chemical_formula_structural   SrPdF4
_chemical_formula_sum   'Sr2 Pd2 F8'
_cell_volume   190.15643069
_cell_formula_units_Z   2
loop_
 _symmetry_equiv_pos_site_id
 _symmetry_equiv_pos_as_xyz
  1  'x, y, z'
loop_
 _atom_site_type_symbol
 _atom_site_label
 _atom_site_symmetry_multiplicity
 _atom_site_fract_x
 _atom_site_fract_y
 _atom_site_fract_z
 _atom_site_occupancy
  Sr  Sr1  1  0.250000  0.250000  0.500000  1.0
  Sr  Sr2  1  0.750000  0.750000  0.500000  1.0
  Pd  Pd3  1  0.000000  0.500000  0.000000  1.0
  Pd  Pd4  1  0.500000  0.000000  0.000000  1.0
  F  F5  1  0.962863  0.462863  0.264362  1.0
  F  F6  1  0.698501  0.198501  0.735638  1.0
  F  F7  1  0.037137  0.537137  0.735638  1.0
  F  F8  1  0.198501  0.037137  0.735638  1.0
  F  F9  1  0.301499  0.801499  0.264362  1.0
  F  F10  1  0.462863  0.301499  0.264362  1.0
  F  F11  1  0.801499  0.962863  0.264362  1.0
  F  F12  1  0.537137  0.698501  0.735638  1.0
