# generated using pymatgen
data_Be12Mo
_symmetry_space_group_name_H-M   'P 1'
_cell_length_a   4.19696797
_cell_length_b   5.52053490
_cell_length_c   5.52053489
_cell_angle_alpha   81.69203670
_cell_angle_beta   67.65867924
_cell_angle_gamma   67.65867915
_symmetry_Int_Tables_number   1
_chemical_formula_structural   Be12Mo
_chemical_formula_sum   'Be12 Mo1'
_cell_volume   109.42616299
_cell_formula_units_Z   1
loop_
 _symmetry_equiv_pos_site_id
 _symmetry_equiv_pos_as_xyz
  1  'x, y, z'
loop_
 _atom_site_type_symbol
 _atom_site_label
 _atom_site_symmetry_multiplicity
 _atom_site_fract_x
 _atom_site_fract_y
 _atom_site_fract_z
 _atom_site_occupancy
  Be  Be1  1  0.500000  0.000000  0.500000  1.0
  Be  Be2  1  0.000000  0.500000  0.000000  1.0
  Be  Be3  1  0.500000  0.500000  0.000000  1.0
  Be  Be4  1  0.000000  0.000000  0.500000  1.0
  Be  Be5  1  0.350611  0.649389  0.649389  1.0
  Be  Be6  1  0.000000  0.350611  0.649389  1.0
  Be  Be7  1  0.000000  0.649389  0.350611  1.0
  Be  Be8  1  0.649389  0.350611  0.350611  1.0
  Be  Be9  1  0.289137  0.210863  0.210863  1.0
  Be  Be10  1  0.500000  0.789137  0.210863  1.0
  Be  Be11  1  0.500000  0.210863  0.789137  1.0
  Be  Be12  1  0.710863  0.789137  0.789137  1.0
  Mo  Mo13  1  0.000000  0.000000  0.000000  1.0
