# generated using pymatgen
data_DySi
_symmetry_space_group_name_H-M   'P 1'
_cell_length_a   3.83474486
_cell_length_b   4.28546104
_cell_length_c   5.68876860
_cell_angle_alpha   112.12693672
_cell_angle_beta   90.00000000
_cell_angle_gamma   90.00000000
_symmetry_Int_Tables_number   1
_chemical_formula_structural   DySi
_chemical_formula_sum   'Dy2 Si2'
_cell_volume   86.60205034
_cell_formula_units_Z   2
loop_
 _symmetry_equiv_pos_site_id
 _symmetry_equiv_pos_as_xyz
  1  'x, y, z'
loop_
 _atom_site_type_symbol
 _atom_site_label
 _atom_site_symmetry_multiplicity
 _atom_site_fract_x
 _atom_site_fract_y
 _atom_site_fract_z
 _atom_site_occupancy
  Dy  Dy1  1  0.250000  0.859862  0.719725  1.0
  Dy  Dy2  1  0.750000  0.140138  0.280275  1.0
  Si  Si3  1  0.250000  0.576266  0.152532  1.0
  Si  Si4  1  0.750000  0.423734  0.847468  1.0
