# generated using pymatgen
data_Mg2SiPt
_symmetry_space_group_name_H-M   'P 1'
_cell_length_a   4.31276187
_cell_length_b   4.31276187
_cell_length_c   8.55026761
_cell_angle_alpha   90.00000000
_cell_angle_beta   90.00000000
_cell_angle_gamma   119.99999994
_symmetry_Int_Tables_number   1
_chemical_formula_structural   Mg2SiPt
_chemical_formula_sum   'Mg4 Si2 Pt2'
_cell_volume   137.72770093
_cell_formula_units_Z   2
loop_
 _symmetry_equiv_pos_site_id
 _symmetry_equiv_pos_as_xyz
  1  'x, y, z'
loop_
 _atom_site_type_symbol
 _atom_site_label
 _atom_site_symmetry_multiplicity
 _atom_site_fract_x
 _atom_site_fract_y
 _atom_site_fract_z
 _atom_site_occupancy
  Mg  Mg1  1  0.333333  0.666667  0.584200  1.0
  Mg  Mg2  1  0.666667  0.333333  0.084200  1.0
  Mg  Mg3  1  0.666667  0.333333  0.415800  1.0
  Mg  Mg4  1  0.333333  0.666667  0.915800  1.0
  Si  Si5  1  0.000000  0.000000  0.750000  1.0
  Si  Si6  1  0.000000  0.000000  0.250000  1.0
  Pt  Pt7  1  0.666667  0.333333  0.750000  1.0
  Pt  Pt8  1  0.333333  0.666667  0.250000  1.0
