# generated using pymatgen
data_Tb(BC)2
_symmetry_space_group_name_H-M   'P 1'
_cell_length_a   3.60098856
_cell_length_b   5.35821667
_cell_length_c   5.35821667
_cell_angle_alpha   90.00000000
_cell_angle_beta   90.00000000
_cell_angle_gamma   90.00000000
_symmetry_Int_Tables_number   1
_chemical_formula_structural   Tb(BC)2
_chemical_formula_sum   'Tb2 B4 C4'
_cell_volume   103.38613122
_cell_formula_units_Z   2
loop_
 _symmetry_equiv_pos_site_id
 _symmetry_equiv_pos_as_xyz
  1  'x, y, z'
loop_
 _atom_site_type_symbol
 _atom_site_label
 _atom_site_symmetry_multiplicity
 _atom_site_fract_x
 _atom_site_fract_y
 _atom_site_fract_z
 _atom_site_occupancy
  Tb  Tb1  1  0.000000  0.500000  0.500000  1.0
  Tb  Tb2  1  0.000000  0.000000  0.000000  1.0
  B  B3  1  0.500000  0.636917  0.136917  1.0
  B  B4  1  0.500000  0.863083  0.636917  1.0
  B  B5  1  0.500000  0.363083  0.863083  1.0
  B  B6  1  0.500000  0.136917  0.363083  1.0
  C  C7  1  0.500000  0.661662  0.838338  1.0
  C  C8  1  0.500000  0.838338  0.338338  1.0
  C  C9  1  0.500000  0.161662  0.661662  1.0
  C  C10  1  0.500000  0.338338  0.161662  1.0
