# generated using pymatgen
data_Er(BC)2
_symmetry_space_group_name_H-M   'P 1'
_cell_length_a   3.51412069
_cell_length_b   5.33839322
_cell_length_c   5.33839322
_cell_angle_alpha   90.00000000
_cell_angle_beta   90.00000000
_cell_angle_gamma   90.00000000
_symmetry_Int_Tables_number   1
_chemical_formula_structural   Er(BC)2
_chemical_formula_sum   'Er2 B4 C4'
_cell_volume   100.14696527
_cell_formula_units_Z   2
loop_
 _symmetry_equiv_pos_site_id
 _symmetry_equiv_pos_as_xyz
  1  'x, y, z'
loop_
 _atom_site_type_symbol
 _atom_site_label
 _atom_site_symmetry_multiplicity
 _atom_site_fract_x
 _atom_site_fract_y
 _atom_site_fract_z
 _atom_site_occupancy
  Er  Er1  1  0.000000  0.500000  0.500000  1.0
  Er  Er2  1  0.000000  0.000000  0.000000  1.0
  B  B3  1  0.500000  0.636464  0.136464  1.0
  B  B4  1  0.500000  0.863536  0.636464  1.0
  B  B5  1  0.500000  0.363536  0.863536  1.0
  B  B6  1  0.500000  0.136464  0.363536  1.0
  C  C7  1  0.500000  0.662130  0.837870  1.0
  C  C8  1  0.500000  0.837870  0.337870  1.0
  C  C9  1  0.500000  0.162130  0.662130  1.0
  C  C10  1  0.500000  0.337870  0.162130  1.0
