# generated using pymatgen
data_TaTe5Pt
_symmetry_space_group_name_H-M   'P 1'
_cell_length_a   3.78293182
_cell_length_b   7.45494305
_cell_length_c   15.67169074
_cell_angle_alpha   90.00000000
_cell_angle_beta   90.00000000
_cell_angle_gamma   104.69773458
_symmetry_Int_Tables_number   1
_chemical_formula_structural   TaTe5Pt
_chemical_formula_sum   'Ta2 Te10 Pt2'
_cell_volume   427.50373247
_cell_formula_units_Z   2
loop_
 _symmetry_equiv_pos_site_id
 _symmetry_equiv_pos_as_xyz
  1  'x, y, z'
loop_
 _atom_site_type_symbol
 _atom_site_label
 _atom_site_symmetry_multiplicity
 _atom_site_fract_x
 _atom_site_fract_y
 _atom_site_fract_z
 _atom_site_occupancy
  Ta  Ta1  1  0.493382  0.986763  0.750000  1.0
  Ta  Ta2  1  0.506618  0.013237  0.250000  1.0
  Te  Te3  1  0.843331  0.686663  0.750000  1.0
  Te  Te4  1  0.156669  0.313337  0.250000  1.0
  Te  Te5  1  0.600123  0.200246  0.083626  1.0
  Te  Te6  1  0.399877  0.799754  0.916374  1.0
  Te  Te7  1  0.096668  0.193337  0.850835  1.0
  Te  Te8  1  0.903332  0.806663  0.149165  1.0
  Te  Te9  1  0.903332  0.806663  0.350835  1.0
  Te  Te10  1  0.096668  0.193337  0.649165  1.0
  Te  Te11  1  0.600123  0.200246  0.416374  1.0
  Te  Te12  1  0.399877  0.799754  0.583626  1.0
  Pt  Pt13  1  0.000000  0.000000  0.000000  1.0
  Pt  Pt14  1  0.000000  0.000000  0.500000  1.0
