# generated using pymatgen
data_AlCr2
_symmetry_space_group_name_H-M   'P 1'
_cell_length_a   2.95838024
_cell_length_b   2.95838023
_cell_length_c   4.80225492
_cell_angle_alpha   107.93994139
_cell_angle_beta   107.93994142
_cell_angle_gamma   89.99999998
_symmetry_Int_Tables_number   1
_chemical_formula_structural   AlCr2
_chemical_formula_sum   'Al1 Cr2'
_cell_volume   37.83223836
_cell_formula_units_Z   1
loop_
 _symmetry_equiv_pos_site_id
 _symmetry_equiv_pos_as_xyz
  1  'x, y, z'
loop_
 _atom_site_type_symbol
 _atom_site_label
 _atom_site_symmetry_multiplicity
 _atom_site_fract_x
 _atom_site_fract_y
 _atom_site_fract_z
 _atom_site_occupancy
  Al  Al1  1  0.000000  0.000000  0.000000  1.0
  Cr  Cr2  1  0.315671  0.315671  0.631343  1.0
  Cr  Cr3  1  0.684329  0.684329  0.368657  1.0
