# generated using pymatgen
data_CrPtO2
_symmetry_space_group_name_H-M   'P 1'
_cell_length_a   2.97976311
_cell_length_b   6.34076170
_cell_length_c   2.97976299
_cell_angle_alpha   103.58978128
_cell_angle_beta   60.00000968
_cell_angle_gamma   103.58978264
_symmetry_Int_Tables_number   1
_chemical_formula_structural   CrPtO2
_chemical_formula_sum   'Cr1 Pt1 O2'
_cell_volume   46.92795312
_cell_formula_units_Z   1
loop_
 _symmetry_equiv_pos_site_id
 _symmetry_equiv_pos_as_xyz
  1  'x, y, z'
loop_
 _atom_site_type_symbol
 _atom_site_label
 _atom_site_symmetry_multiplicity
 _atom_site_fract_x
 _atom_site_fract_y
 _atom_site_fract_z
 _atom_site_occupancy
  Cr  Cr1  1  0.500000  0.500000  0.500000  1.0
  Pt  Pt2  1  0.000000  0.000000  0.000000  1.0
  O  O3  1  0.110772  0.332317  0.110772  1.0
  O  O4  1  0.889228  0.667683  0.889228  1.0
