# generated using pymatgen
data_Be12Pd
_symmetry_space_group_name_H-M   'P 1'
_cell_length_a   4.18220882
_cell_length_b   5.55176570
_cell_length_c   5.55176570
_cell_angle_alpha   81.84395671
_cell_angle_beta   67.87331527
_cell_angle_gamma   67.87331539
_symmetry_Int_Tables_number   1
_chemical_formula_structural   Be12Pd
_chemical_formula_sum   'Be12 Pd1'
_cell_volume   110.61685003
_cell_formula_units_Z   1
loop_
 _symmetry_equiv_pos_site_id
 _symmetry_equiv_pos_as_xyz
  1  'x, y, z'
loop_
 _atom_site_type_symbol
 _atom_site_label
 _atom_site_symmetry_multiplicity
 _atom_site_fract_x
 _atom_site_fract_y
 _atom_site_fract_z
 _atom_site_occupancy
  Be  Be1  1  0.500000  0.000000  0.500000  1.0
  Be  Be2  1  0.000000  0.500000  0.000000  1.0
  Be  Be3  1  0.500000  0.500000  0.000000  1.0
  Be  Be4  1  0.000000  0.000000  0.500000  1.0
  Be  Be5  1  0.348237  0.651763  0.651763  1.0
  Be  Be6  1  0.000000  0.348237  0.651763  1.0
  Be  Be7  1  0.000000  0.651763  0.348237  1.0
  Be  Be8  1  0.651763  0.348237  0.348237  1.0
  Be  Be9  1  0.274476  0.225524  0.225524  1.0
  Be  Be10  1  0.500000  0.774476  0.225524  1.0
  Be  Be11  1  0.500000  0.225524  0.774476  1.0
  Be  Be12  1  0.725524  0.774476  0.774476  1.0
  Pd  Pd13  1  0.000000  0.000000  0.000000  1.0
