# generated using pymatgen
data_Ca3Al7Cu2
_symmetry_space_group_name_H-M   'P 1'
_cell_length_a   9.18297697
_cell_length_b   9.18297696
_cell_length_c   9.18297696
_cell_angle_alpha   35.37038697
_cell_angle_beta   35.37038699
_cell_angle_gamma   35.37038697
_symmetry_Int_Tables_number   1
_chemical_formula_structural   Ca3Al7Cu2
_chemical_formula_sum   'Ca3 Al7 Cu2'
_cell_volume   231.82850941
_cell_formula_units_Z   1
loop_
 _symmetry_equiv_pos_site_id
 _symmetry_equiv_pos_as_xyz
  1  'x, y, z'
loop_
 _atom_site_type_symbol
 _atom_site_label
 _atom_site_symmetry_multiplicity
 _atom_site_fract_x
 _atom_site_fract_y
 _atom_site_fract_z
 _atom_site_occupancy
  Ca  Ca1  1  0.000000  0.000000  0.000000  1.0
  Ca  Ca2  1  0.142956  0.142956  0.142956  1.0
  Ca  Ca3  1  0.857044  0.857044  0.857044  1.0
  Al  Al4  1  0.500000  0.500000  0.500000  1.0
  Al  Al5  1  0.579518  0.073051  0.579518  1.0
  Al  Al6  1  0.579518  0.579518  0.073051  1.0
  Al  Al7  1  0.073051  0.579518  0.579518  1.0
  Al  Al8  1  0.926949  0.420482  0.420482  1.0
  Al  Al9  1  0.420482  0.926949  0.420482  1.0
  Al  Al10  1  0.420482  0.420482  0.926949  1.0
  Cu  Cu11  1  0.335014  0.335014  0.335014  1.0
  Cu  Cu12  1  0.664986  0.664986  0.664986  1.0
