# generated using pymatgen
data_LaAl
_symmetry_space_group_name_H-M   'P 1'
_cell_length_a   5.77126717
_cell_length_b   6.12466451
_cell_length_c   6.12466451
_cell_angle_alpha   101.34015897
_cell_angle_beta   90.00000000
_cell_angle_gamma   90.00000000
_symmetry_Int_Tables_number   1
_chemical_formula_structural   LaAl
_chemical_formula_sum   'La4 Al4'
_cell_volume   212.26247964
_cell_formula_units_Z   4
loop_
 _symmetry_equiv_pos_site_id
 _symmetry_equiv_pos_as_xyz
  1  'x, y, z'
loop_
 _atom_site_type_symbol
 _atom_site_label
 _atom_site_symmetry_multiplicity
 _atom_site_fract_x
 _atom_site_fract_y
 _atom_site_fract_z
 _atom_site_occupancy
  La  La1  1  0.750000  0.158114  0.514021  1.0
  La  La2  1  0.250000  0.841886  0.485979  1.0
  La  La3  1  0.750000  0.514021  0.158114  1.0
  La  La4  1  0.250000  0.485979  0.841886  1.0
  Al  Al5  1  0.750000  0.696471  0.696471  1.0
  Al  Al6  1  0.250000  0.303529  0.303529  1.0
  Al  Al7  1  0.500000  0.000000  0.000000  1.0
  Al  Al8  1  0.000000  0.000000  0.000000  1.0
