# generated using pymatgen
data_NdSn2
_symmetry_space_group_name_H-M   'P 1'
_cell_length_a   4.52373702
_cell_length_b   4.60504759
_cell_length_c   8.41525966
_cell_angle_alpha   90.00000000
_cell_angle_beta   105.59178882
_cell_angle_gamma   90.00000000
_symmetry_Int_Tables_number   1
_chemical_formula_structural   NdSn2
_chemical_formula_sum   'Nd2 Sn4'
_cell_volume   168.85579193
_cell_formula_units_Z   2
loop_
 _symmetry_equiv_pos_site_id
 _symmetry_equiv_pos_as_xyz
  1  'x, y, z'
loop_
 _atom_site_type_symbol
 _atom_site_label
 _atom_site_symmetry_multiplicity
 _atom_site_fract_x
 _atom_site_fract_y
 _atom_site_fract_z
 _atom_site_occupancy
  Nd  Nd1  1  0.855273  0.000000  0.710546  1.0
  Nd  Nd2  1  0.144727  0.000000  0.289454  1.0
  Sn  Sn3  1  0.500000  0.000000  0.000000  1.0
  Sn  Sn4  1  0.000000  0.500000  0.000000  1.0
  Sn  Sn5  1  0.685111  0.500000  0.370221  1.0
  Sn  Sn6  1  0.314889  0.500000  0.629779  1.0
