# generated using pymatgen
data_Zr3Pd4
_symmetry_space_group_name_H-M   'P 1'
_cell_length_a   5.60033607
_cell_length_b   7.54534237
_cell_length_c   7.54534172
_cell_angle_alpha   114.09079909
_cell_angle_beta   104.32418756
_cell_angle_gamma   104.32418621
_symmetry_Int_Tables_number   1
_chemical_formula_structural   Zr3Pd4
_chemical_formula_sum   'Zr6 Pd8'
_cell_volume   259.22130993
_cell_formula_units_Z   2
loop_
 _symmetry_equiv_pos_site_id
 _symmetry_equiv_pos_as_xyz
  1  'x, y, z'
loop_
 _atom_site_type_symbol
 _atom_site_label
 _atom_site_symmetry_multiplicity
 _atom_site_fract_x
 _atom_site_fract_y
 _atom_site_fract_z
 _atom_site_occupancy
  Zr  Zr1  1  0.734598  0.739255  0.131332  1.0
  Zr  Zr2  1  0.603266  0.868668  0.607923  1.0
  Zr  Zr3  1  0.995343  0.392077  0.260745  1.0
  Zr  Zr4  1  0.265402  0.260745  0.868668  1.0
  Zr  Zr5  1  0.396734  0.131332  0.392077  1.0
  Zr  Zr6  1  0.004657  0.607923  0.739255  1.0
  Pd  Pd7  1  0.000000  0.000000  0.000000  1.0
  Pd  Pd8  1  0.500000  0.000000  0.000000  1.0
  Pd  Pd9  1  0.238053  0.678606  0.160759  1.0
  Pd  Pd10  1  0.077294  0.839241  0.517847  1.0
  Pd  Pd11  1  0.559447  0.482153  0.321394  1.0
  Pd  Pd12  1  0.761947  0.321394  0.839241  1.0
  Pd  Pd13  1  0.922706  0.160759  0.482153  1.0
  Pd  Pd14  1  0.440553  0.517847  0.678606  1.0
