# generated using pymatgen
data_CaAu
_symmetry_space_group_name_H-M   'P 1'
_cell_length_a   4.02145963
_cell_length_b   4.66705636
_cell_length_c   5.89448367
_cell_angle_alpha   90.00000000
_cell_angle_beta   109.94516183
_cell_angle_gamma   90.00000000
_symmetry_Int_Tables_number   1
_chemical_formula_structural   CaAu
_chemical_formula_sum   'Ca2 Au2'
_cell_volume   103.99426961
_cell_formula_units_Z   2
loop_
 _symmetry_equiv_pos_site_id
 _symmetry_equiv_pos_as_xyz
  1  'x, y, z'
loop_
 _atom_site_type_symbol
 _atom_site_label
 _atom_site_symmetry_multiplicity
 _atom_site_fract_x
 _atom_site_fract_y
 _atom_site_fract_z
 _atom_site_occupancy
  Ca  Ca1  1  0.860622  0.250000  0.721244  1.0
  Ca  Ca2  1  0.139378  0.750000  0.278756  1.0
  Au  Au3  1  0.580941  0.250000  0.161882  1.0
  Au  Au4  1  0.419059  0.750000  0.838118  1.0
