# generated using pymatgen
data_CdTe
_symmetry_space_group_name_H-M   'P 1'
_cell_length_a   4.62466899
_cell_length_b   4.62466899
_cell_length_c   10.49997631
_cell_angle_alpha   90.00000000
_cell_angle_beta   90.00000000
_cell_angle_gamma   119.99999994
_symmetry_Int_Tables_number   1
_chemical_formula_structural   CdTe
_chemical_formula_sum   'Cd3 Te3'
_cell_volume   194.48237903
_cell_formula_units_Z   3
loop_
 _symmetry_equiv_pos_site_id
 _symmetry_equiv_pos_as_xyz
  1  'x, y, z'
loop_
 _atom_site_type_symbol
 _atom_site_label
 _atom_site_symmetry_multiplicity
 _atom_site_fract_x
 _atom_site_fract_y
 _atom_site_fract_z
 _atom_site_occupancy
  Cd  Cd1  1  0.506373  0.000000  0.333333  1.0
  Cd  Cd2  1  0.000000  0.506373  0.666667  1.0
  Cd  Cd3  1  0.493627  0.493627  0.000000  1.0
  Te  Te4  1  0.502877  0.000000  0.833333  1.0
  Te  Te5  1  0.000000  0.502877  0.166667  1.0
  Te  Te6  1  0.497123  0.497123  0.500000  1.0
