# generated using pymatgen
data_MgPd3
_symmetry_space_group_name_H-M   'P 1'
_cell_length_a   3.97730656
_cell_length_b   3.97730656
_cell_length_c   8.43158120
_cell_angle_alpha   103.64218611
_cell_angle_beta   103.64218611
_cell_angle_gamma   89.99999998
_symmetry_Int_Tables_number   1
_chemical_formula_structural   MgPd3
_chemical_formula_sum   'Mg2 Pd6'
_cell_volume   125.74047169
_cell_formula_units_Z   2
loop_
 _symmetry_equiv_pos_site_id
 _symmetry_equiv_pos_as_xyz
  1  'x, y, z'
loop_
 _atom_site_type_symbol
 _atom_site_label
 _atom_site_symmetry_multiplicity
 _atom_site_fract_x
 _atom_site_fract_y
 _atom_site_fract_z
 _atom_site_occupancy
  Mg  Mg1  1  0.123688  0.123688  0.247375  1.0
  Mg  Mg2  1  0.876312  0.876312  0.752625  1.0
  Pd  Pd3  1  0.500000  0.000000  0.000000  1.0
  Pd  Pd4  1  0.000000  0.500000  0.000000  1.0
  Pd  Pd5  1  0.750000  0.250000  0.500000  1.0
  Pd  Pd6  1  0.250000  0.750000  0.500000  1.0
  Pd  Pd7  1  0.374429  0.374429  0.748858  1.0
  Pd  Pd8  1  0.625571  0.625571  0.251142  1.0
