# generated using pymatgen
data_PuNi
_symmetry_space_group_name_H-M   'P 1'
_cell_length_a   3.74072888
_cell_length_b   3.98339269
_cell_length_c   5.51661169
_cell_angle_alpha   90.00000000
_cell_angle_beta   109.81853349
_cell_angle_gamma   90.00000000
_symmetry_Int_Tables_number   1
_chemical_formula_structural   PuNi
_chemical_formula_sum   'Pu2 Ni2'
_cell_volume   77.33316055
_cell_formula_units_Z   2
loop_
 _symmetry_equiv_pos_site_id
 _symmetry_equiv_pos_as_xyz
  1  'x, y, z'
loop_
 _atom_site_type_symbol
 _atom_site_label
 _atom_site_symmetry_multiplicity
 _atom_site_fract_x
 _atom_site_fract_y
 _atom_site_fract_z
 _atom_site_occupancy
  Pu  Pu1  1  0.145245  0.750000  0.290490  1.0
  Pu  Pu2  1  0.854755  0.250000  0.709510  1.0
  Ni  Ni3  1  0.429372  0.750000  0.858745  1.0
  Ni  Ni4  1  0.570628  0.250000  0.141255  1.0
