# generated using pymatgen
data_Sc2CdS4
_symmetry_space_group_name_H-M   'P 1'
_cell_length_a   7.65972372
_cell_length_b   7.65972373
_cell_length_c   7.65972373
_cell_angle_alpha   60.00000005
_cell_angle_beta   60.00000001
_cell_angle_gamma   60.00000002
_symmetry_Int_Tables_number   1
_chemical_formula_structural   Sc2CdS4
_chemical_formula_sum   'Sc4 Cd2 S8'
_cell_volume   317.77835998
_cell_formula_units_Z   2
loop_
 _symmetry_equiv_pos_site_id
 _symmetry_equiv_pos_as_xyz
  1  'x, y, z'
loop_
 _atom_site_type_symbol
 _atom_site_label
 _atom_site_symmetry_multiplicity
 _atom_site_fract_x
 _atom_site_fract_y
 _atom_site_fract_z
 _atom_site_occupancy
  Sc  Sc1  1  0.500000  0.000000  0.500000  1.0
  Sc  Sc2  1  0.000000  0.500000  0.500000  1.0
  Sc  Sc3  1  0.500000  0.500000  0.000000  1.0
  Sc  Sc4  1  0.500000  0.500000  0.500000  1.0
  Cd  Cd5  1  0.875000  0.875000  0.875000  1.0
  Cd  Cd6  1  0.125000  0.125000  0.125000  1.0
  S  S7  1  0.739227  0.739227  0.739227  1.0
  S  S8  1  0.260773  0.260773  0.717680  1.0
  S  S9  1  0.260773  0.717680  0.260773  1.0
  S  S10  1  0.717680  0.260773  0.260773  1.0
  S  S11  1  0.739227  0.282320  0.739227  1.0
  S  S12  1  0.282320  0.739227  0.739227  1.0
  S  S13  1  0.260773  0.260773  0.260773  1.0
  S  S14  1  0.739227  0.739227  0.282320  1.0
