# generated using pymatgen
data_Al21Pd8
_symmetry_space_group_name_H-M   'P 1'
_cell_length_a   10.70356172
_cell_length_b   10.70356172
_cell_length_c   10.70356171
_cell_angle_alpha   104.67800441
_cell_angle_beta   104.67800441
_cell_angle_gamma   119.55289184
_symmetry_Int_Tables_number   1
_chemical_formula_structural   Al21Pd8
_chemical_formula_sum   'Al42 Pd16'
_cell_volume   921.72750980
_cell_formula_units_Z   2
loop_
 _symmetry_equiv_pos_site_id
 _symmetry_equiv_pos_as_xyz
  1  'x, y, z'
loop_
 _atom_site_type_symbol
 _atom_site_label
 _atom_site_symmetry_multiplicity
 _atom_site_fract_x
 _atom_site_fract_y
 _atom_site_fract_z
 _atom_site_occupancy
  Al  Al1  1  0.125000  0.375000  0.750000  1.0
  Al  Al2  1  0.875000  0.625000  0.250000  1.0
  Al  Al3  1  0.614010  0.720919  0.785622  1.0
  Al  Al4  1  0.220919  0.935297  0.106909  1.0
  Al  Al5  1  0.328388  0.114010  0.393091  1.0
  Al  Al6  1  0.435297  0.828388  0.714378  1.0
  Al  Al7  1  0.385990  0.279081  0.214378  1.0
  Al  Al8  1  0.779081  0.064703  0.893091  1.0
  Al  Al9  1  0.671612  0.885990  0.606909  1.0
  Al  Al10  1  0.564703  0.171612  0.285622  1.0
  Al  Al11  1  0.660240  0.075622  0.088834  1.0
  Al  Al12  1  0.575622  0.986788  0.415382  1.0
  Al  Al13  1  0.071406  0.160240  0.084618  1.0
  Al  Al14  1  0.486788  0.571406  0.411166  1.0
  Al  Al15  1  0.339760  0.924378  0.911166  1.0
  Al  Al16  1  0.424378  0.013212  0.584618  1.0
  Al  Al17  1  0.928594  0.839760  0.915382  1.0
  Al  Al18  1  0.513212  0.428594  0.588834  1.0
  Al  Al19  1  0.939416  0.182423  0.322210  1.0
  Al  Al20  1  0.682423  0.860213  0.243006  1.0
  Al  Al21  1  0.117207  0.439416  0.256994  1.0
  Al  Al22  1  0.360213  0.617207  0.177790  1.0
  Al  Al23  1  0.060584  0.817577  0.677790  1.0
  Al  Al24  1  0.317577  0.139787  0.756994  1.0
  Al  Al25  1  0.882793  0.560584  0.743006  1.0
  Al  Al26  1  0.639787  0.382793  0.822210  1.0
  Al  Al27  1  0.154287  0.177448  0.541273  1.0
  Al  Al28  1  0.677448  0.636175  0.023161  1.0
  Al  Al29  1  0.113014  0.654287  0.476839  1.0
  Al  Al30  1  0.136175  0.613014  0.958727  1.0
  Al  Al31  1  0.845713  0.822552  0.458727  1.0
  Al  Al32  1  0.322552  0.363825  0.976839  1.0
  Al  Al33  1  0.886986  0.345713  0.523161  1.0
  Al  Al34  1  0.863825  0.386986  0.041273  1.0
  Al  Al35  1  0.279479  0.508255  0.584209  1.0
  Al  Al36  1  0.008255  0.924046  0.228776  1.0
  Al  Al37  1  0.195270  0.779479  0.271224  1.0
  Al  Al38  1  0.424046  0.695270  0.915791  1.0
  Al  Al39  1  0.720521  0.491745  0.415791  1.0
  Al  Al40  1  0.991745  0.075954  0.771224  1.0
  Al  Al41  1  0.804730  0.220521  0.728776  1.0
  Al  Al42  1  0.575954  0.304730  0.084209  1.0
  Pd  Pd43  1  0.850176  0.376659  0.287498  1.0
  Pd  Pd44  1  0.876659  0.089161  0.526483  1.0
  Pd  Pd45  1  0.062677  0.350176  0.973517  1.0
  Pd  Pd46  1  0.589161  0.562677  0.212502  1.0
  Pd  Pd47  1  0.149824  0.623341  0.712502  1.0
  Pd  Pd48  1  0.123341  0.910839  0.473517  1.0
  Pd  Pd49  1  0.937323  0.649824  0.026483  1.0
  Pd  Pd50  1  0.410839  0.437323  0.787498  1.0
  Pd  Pd51  1  0.203953  0.068017  0.936039  1.0
  Pd  Pd52  1  0.568017  0.131979  0.864064  1.0
  Pd  Pd53  1  0.767915  0.703953  0.635936  1.0
  Pd  Pd54  1  0.631979  0.267915  0.563961  1.0
  Pd  Pd55  1  0.796047  0.931983  0.063961  1.0
  Pd  Pd56  1  0.431983  0.868021  0.135936  1.0
  Pd  Pd57  1  0.232085  0.296047  0.364064  1.0
  Pd  Pd58  1  0.368021  0.732085  0.436039  1.0
