# generated using pymatgen
data_YSi2
_symmetry_space_group_name_H-M   'P 1'
_cell_length_a   4.00605070
_cell_length_b   3.98454993
_cell_length_c   7.81932207
_cell_angle_alpha   104.76106993
_cell_angle_beta   104.84254228
_cell_angle_gamma   90.00000000
_symmetry_Int_Tables_number   1
_chemical_formula_structural   YSi2
_chemical_formula_sum   'Y2 Si4'
_cell_volume   116.38321392
_cell_formula_units_Z   2
loop_
 _symmetry_equiv_pos_site_id
 _symmetry_equiv_pos_as_xyz
  1  'x, y, z'
loop_
 _atom_site_type_symbol
 _atom_site_label
 _atom_site_symmetry_multiplicity
 _atom_site_fract_x
 _atom_site_fract_y
 _atom_site_fract_z
 _atom_site_occupancy
  Y  Y1  1  0.625395  0.375395  0.750790  1.0
  Y  Y2  1  0.374605  0.624605  0.249210  1.0
  Si  Si3  1  0.042567  0.792567  0.585134  1.0
  Si  Si4  1  0.957433  0.207433  0.414866  1.0
  Si  Si5  1  0.207902  0.957902  0.915803  1.0
  Si  Si6  1  0.792098  0.042098  0.084197  1.0
