# generated using pymatgen
data_Zr5Sb3
_symmetry_space_group_name_H-M   'P 1'
_cell_length_a   5.79913312
_cell_length_b   8.51622362
_cell_length_c   8.51927104
_cell_angle_alpha   119.98817190
_cell_angle_beta   90.00000000
_cell_angle_gamma   90.00000000
_symmetry_Int_Tables_number   1
_chemical_formula_structural   Zr5Sb3
_chemical_formula_sum   'Zr10 Sb6'
_cell_volume   364.41391527
_cell_formula_units_Z   2
loop_
 _symmetry_equiv_pos_site_id
 _symmetry_equiv_pos_as_xyz
  1  'x, y, z'
loop_
 _atom_site_type_symbol
 _atom_site_label
 _atom_site_symmetry_multiplicity
 _atom_site_fract_x
 _atom_site_fract_y
 _atom_site_fract_z
 _atom_site_occupancy
  Zr  Zr1  1  0.749986  0.252732  0.000000  1.0
  Zr  Zr2  1  0.750009  0.747023  0.746781  1.0
  Zr  Zr3  1  0.750009  0.000243  0.253219  1.0
  Zr  Zr4  1  0.249986  0.747268  0.000000  1.0
  Zr  Zr5  1  0.250009  0.252977  0.253219  1.0
  Zr  Zr6  1  0.250009  0.999757  0.746781  1.0
  Zr  Zr7  1  0.500001  0.333386  0.666763  1.0
  Zr  Zr8  1  0.500001  0.666623  0.333237  1.0
  Zr  Zr9  1  0.000001  0.666614  0.333237  1.0
  Zr  Zr10  1  0.000001  0.333377  0.666763  1.0
  Sb  Sb11  1  0.749984  0.612364  0.000000  1.0
  Sb  Sb12  1  0.750004  0.387949  0.387954  1.0
  Sb  Sb13  1  0.750004  0.999995  0.612046  1.0
  Sb  Sb14  1  0.249984  0.387636  0.000000  1.0
  Sb  Sb15  1  0.250004  0.612051  0.612046  1.0
  Sb  Sb16  1  0.250004  0.000005  0.387954  1.0
