# generated using pymatgen
data_RbCu3S2
_symmetry_space_group_name_H-M   'P 1'
_cell_length_a   3.91884560
_cell_length_b   7.58407604
_cell_length_c   8.53182275
_cell_angle_alpha   111.37899403
_cell_angle_beta   90.00000000
_cell_angle_gamma   104.97277972
_symmetry_Int_Tables_number   1
_chemical_formula_structural   RbCu3S2
_chemical_formula_sum   'Rb2 Cu6 S4'
_cell_volume   226.85399080
_cell_formula_units_Z   2
loop_
 _symmetry_equiv_pos_site_id
 _symmetry_equiv_pos_as_xyz
  1  'x, y, z'
loop_
 _atom_site_type_symbol
 _atom_site_label
 _atom_site_symmetry_multiplicity
 _atom_site_fract_x
 _atom_site_fract_y
 _atom_site_fract_z
 _atom_site_occupancy
  Rb  Rb1  1  0.864104  0.728207  0.956776  1.0
  Rb  Rb2  1  0.135896  0.271793  0.043224  1.0
  Cu  Cu3  1  0.407818  0.815636  0.365831  1.0
  Cu  Cu4  1  0.309815  0.619631  0.579025  1.0
  Cu  Cu5  1  0.064305  0.128610  0.410591  1.0
  Cu  Cu6  1  0.935695  0.871390  0.589409  1.0
  Cu  Cu7  1  0.690185  0.380369  0.420975  1.0
  Cu  Cu8  1  0.592182  0.184364  0.634169  1.0
  S  S9  1  0.810373  0.620747  0.319595  1.0
  S  S10  1  0.189627  0.379253  0.680405  1.0
  S  S11  1  0.524764  0.049528  0.247777  1.0
  S  S12  1  0.475236  0.950472  0.752223  1.0
