# generated using pymatgen
data_YbAl2Ni
_symmetry_space_group_name_H-M   'P 1'
_cell_length_a   4.10185902
_cell_length_b   5.31733675
_cell_length_c   7.13615740
_cell_angle_alpha   90.00000000
_cell_angle_beta   90.00000000
_cell_angle_gamma   112.68758619
_symmetry_Int_Tables_number   1
_chemical_formula_structural   YbAl2Ni
_chemical_formula_sum   'Yb2 Al4 Ni2'
_cell_volume   143.60282071
_cell_formula_units_Z   2
loop_
 _symmetry_equiv_pos_site_id
 _symmetry_equiv_pos_as_xyz
  1  'x, y, z'
loop_
 _atom_site_type_symbol
 _atom_site_label
 _atom_site_symmetry_multiplicity
 _atom_site_fract_x
 _atom_site_fract_y
 _atom_site_fract_z
 _atom_site_occupancy
  Yb  Yb1  1  0.553514  0.107028  0.250000  1.0
  Yb  Yb2  1  0.446486  0.892972  0.750000  1.0
  Al  Al3  1  0.163144  0.326289  0.943004  1.0
  Al  Al4  1  0.836856  0.673711  0.056996  1.0
  Al  Al5  1  0.836856  0.673711  0.443004  1.0
  Al  Al6  1  0.163144  0.326289  0.556996  1.0
  Ni  Ni7  1  0.280047  0.560095  0.250000  1.0
  Ni  Ni8  1  0.719953  0.439905  0.750000  1.0
