# generated using pymatgen
data_Y(PdO2)2
_symmetry_space_group_name_H-M   'P 1'
_cell_length_a   5.82538856
_cell_length_b   5.82538856
_cell_length_c   6.52105248
_cell_angle_alpha   116.52960368
_cell_angle_beta   116.52960367
_cell_angle_gamma   90.00000008
_symmetry_Int_Tables_number   1
_chemical_formula_structural   Y(PdO2)2
_chemical_formula_sum   'Y2 Pd4 O8'
_cell_volume   171.55402272
_cell_formula_units_Z   2
loop_
 _symmetry_equiv_pos_site_id
 _symmetry_equiv_pos_as_xyz
  1  'x, y, z'
loop_
 _atom_site_type_symbol
 _atom_site_label
 _atom_site_symmetry_multiplicity
 _atom_site_fract_x
 _atom_site_fract_y
 _atom_site_fract_z
 _atom_site_occupancy
  Y  Y1  1  0.125000  0.375000  0.250000  1.0
  Y  Y2  1  0.875000  0.625000  0.750000  1.0
  Pd  Pd3  1  0.500000  0.000000  0.500000  1.0
  Pd  Pd4  1  0.500000  0.500000  0.000000  1.0
  Pd  Pd5  1  0.000000  0.000000  0.500000  1.0
  Pd  Pd6  1  0.500000  0.000000  0.000000  1.0
  O  O7  1  0.834810  0.616944  0.354917  1.0
  O  O8  1  0.737973  0.334810  0.854917  1.0
  O  O9  1  0.116944  0.020107  0.854917  1.0
  O  O10  1  0.520107  0.237973  0.354917  1.0
  O  O11  1  0.165190  0.383056  0.645083  1.0
  O  O12  1  0.262027  0.665190  0.145083  1.0
  O  O13  1  0.479893  0.762027  0.645083  1.0
  O  O14  1  0.883056  0.979893  0.145083  1.0
