# generated using pymatgen
data_Ge
_symmetry_space_group_name_H-M   'P 1'
_cell_length_a   6.11993304
_cell_length_b   6.11993304
_cell_length_c   6.11993304
_cell_angle_alpha   109.97539911
_cell_angle_beta   109.97539912
_cell_angle_gamma   109.97539912
_symmetry_Int_Tables_number   1
_chemical_formula_structural   Ge
_chemical_formula_sum   Ge8
_cell_volume   173.07654693
_cell_formula_units_Z   8
loop_
 _symmetry_equiv_pos_site_id
 _symmetry_equiv_pos_as_xyz
  1  'x, y, z'
loop_
 _atom_site_type_symbol
 _atom_site_label
 _atom_site_symmetry_multiplicity
 _atom_site_fract_x
 _atom_site_fract_y
 _atom_site_fract_z
 _atom_site_occupancy
  Ge  Ge1  1  0.285519  0.285519  0.285519  1.0
  Ge  Ge2  1  0.714481  0.714481  0.714481  1.0
  Ge  Ge3  1  0.469947  0.973070  0.278233  1.0
  Ge  Ge4  1  0.278233  0.469947  0.973070  1.0
  Ge  Ge5  1  0.973070  0.278233  0.469947  1.0
  Ge  Ge6  1  0.530053  0.026930  0.721767  1.0
  Ge  Ge7  1  0.721767  0.530053  0.026930  1.0
  Ge  Ge8  1  0.026930  0.721767  0.530053  1.0
