# generated using pymatgen
data_CaAlSi
_symmetry_space_group_name_H-M   'P 1'
_cell_length_a   4.20410176
_cell_length_b   4.20410148
_cell_length_c   4.38111391
_cell_angle_alpha   90.00000000
_cell_angle_beta   90.00000000
_cell_angle_gamma   119.99999433
_symmetry_Int_Tables_number   1
_chemical_formula_structural   CaAlSi
_chemical_formula_sum   'Ca1 Al1 Si1'
_cell_volume   67.05970086
_cell_formula_units_Z   1
loop_
 _symmetry_equiv_pos_site_id
 _symmetry_equiv_pos_as_xyz
  1  'x, y, z'
loop_
 _atom_site_type_symbol
 _atom_site_label
 _atom_site_symmetry_multiplicity
 _atom_site_fract_x
 _atom_site_fract_y
 _atom_site_fract_z
 _atom_site_occupancy
  Ca  Ca1  1  0.000000  0.000000  0.000000  1.0
  Al  Al2  1  0.666667  0.333333  0.500000  1.0
  Si  Si3  1  0.333333  0.666667  0.500000  1.0
