# generated using pymatgen
data_SrSi
_symmetry_space_group_name_H-M   'P 1'
_cell_length_a   4.07762605
_cell_length_b   4.82997692
_cell_length_c   6.14650329
_cell_angle_alpha   113.13534109
_cell_angle_beta   90.00000000
_cell_angle_gamma   90.00000000
_symmetry_Int_Tables_number   1
_chemical_formula_structural   SrSi
_chemical_formula_sum   'Sr2 Si2'
_cell_volume   111.31912034
_cell_formula_units_Z   2
loop_
 _symmetry_equiv_pos_site_id
 _symmetry_equiv_pos_as_xyz
  1  'x, y, z'
loop_
 _atom_site_type_symbol
 _atom_site_label
 _atom_site_symmetry_multiplicity
 _atom_site_fract_x
 _atom_site_fract_y
 _atom_site_fract_z
 _atom_site_occupancy
  Sr  Sr1  1  0.250000  0.638662  0.277324  1.0
  Sr  Sr2  1  0.750000  0.361338  0.722676  1.0
  Si  Si3  1  0.250000  0.936512  0.873024  1.0
  Si  Si4  1  0.750000  0.063488  0.126976  1.0
