# generated using pymatgen
data_Cu2GeTe3
_symmetry_space_group_name_H-M   'P 1'
_cell_length_a   4.35201084
_cell_length_b   5.95210598
_cell_length_c   7.36962577
_cell_angle_alpha   113.81763438
_cell_angle_beta   107.17353327
_cell_angle_gamma   90.00000003
_symmetry_Int_Tables_number   1
_chemical_formula_structural   Cu2GeTe3
_chemical_formula_sum   'Cu2 Ge1 Te3'
_cell_volume   165.29579470
_cell_formula_units_Z   1
loop_
 _symmetry_equiv_pos_site_id
 _symmetry_equiv_pos_as_xyz
  1  'x, y, z'
loop_
 _atom_site_type_symbol
 _atom_site_label
 _atom_site_symmetry_multiplicity
 _atom_site_fract_x
 _atom_site_fract_y
 _atom_site_fract_z
 _atom_site_occupancy
  Cu  Cu1  1  0.832373  0.569086  0.664746  1.0
  Cu  Cu2  1  0.167627  0.904340  0.335254  1.0
  Ge  Ge3  1  0.500000  0.260585  0.000000  1.0
  Te  Te4  1  0.673296  0.679679  0.346592  1.0
  Te  Te5  1  0.326704  0.333087  0.653408  1.0
  Te  Te6  1  0.000000  0.980223  0.000000  1.0
