# generated using pymatgen
data_Na2Si3O7
_symmetry_space_group_name_H-M   'P 1'
_cell_length_a   4.90549844
_cell_length_b   5.12904564
_cell_length_c   11.70504037
_cell_angle_alpha   100.72773674
_cell_angle_beta   90.00000000
_cell_angle_gamma   118.56841063
_symmetry_Int_Tables_number   1
_chemical_formula_structural   Na2Si3O7
_chemical_formula_sum   'Na4 Si6 O14'
_cell_volume   252.77181739
_cell_formula_units_Z   2
loop_
 _symmetry_equiv_pos_site_id
 _symmetry_equiv_pos_as_xyz
  1  'x, y, z'
loop_
 _atom_site_type_symbol
 _atom_site_label
 _atom_site_symmetry_multiplicity
 _atom_site_fract_x
 _atom_site_fract_y
 _atom_site_fract_z
 _atom_site_occupancy
  Na  Na1  1  0.439845  0.292518  0.681933  1.0
  Na  Na2  1  0.147328  0.707482  0.818067  1.0
  Na  Na3  1  0.560155  0.707482  0.318067  1.0
  Na  Na4  1  0.852672  0.292518  0.181933  1.0
  Si  Si5  1  0.500000  0.500000  0.000000  1.0
  Si  Si6  1  0.000000  0.500000  0.500000  1.0
  Si  Si7  1  0.740737  0.913686  0.615182  1.0
  Si  Si8  1  0.827051  0.086314  0.884818  1.0
  Si  Si9  1  0.259263  0.086314  0.384818  1.0
  Si  Si10  1  0.172949  0.913686  0.115182  1.0
  O  O11  1  0.647704  0.000000  0.750000  1.0
  O  O12  1  0.352296  0.000000  0.250000  1.0
  O  O13  1  0.744376  0.754123  0.910870  1.0
  O  O14  1  0.990253  0.245877  0.589130  1.0
  O  O15  1  0.255624  0.245877  0.089130  1.0
  O  O16  1  0.009747  0.754123  0.410870  1.0
  O  O17  1  0.410479  0.729706  0.536600  1.0
  O  O18  1  0.680773  0.270294  0.963400  1.0
  O  O19  1  0.589521  0.270294  0.463400  1.0
  O  O20  1  0.319227  0.729706  0.036600  1.0
  O  O21  1  0.796748  0.718165  0.127273  1.0
  O  O22  1  0.078583  0.281835  0.372727  1.0
  O  O23  1  0.203252  0.281835  0.872727  1.0
  O  O24  1  0.921417  0.718165  0.627273  1.0
