# generated using pymatgen
data_SiO2
_symmetry_space_group_name_H-M   'P 1'
_cell_length_a   4.48793136
_cell_length_b   4.48793136
_cell_length_c   4.48793136
_cell_angle_alpha   90.00000000
_cell_angle_beta   90.00000000
_cell_angle_gamma   90.00000000
_symmetry_Int_Tables_number   1
_chemical_formula_structural   SiO2
_chemical_formula_sum   'Si4 O8'
_cell_volume   90.39379467
_cell_formula_units_Z   4
loop_
 _symmetry_equiv_pos_site_id
 _symmetry_equiv_pos_as_xyz
  1  'x, y, z'
loop_
 _atom_site_type_symbol
 _atom_site_label
 _atom_site_symmetry_multiplicity
 _atom_site_fract_x
 _atom_site_fract_y
 _atom_site_fract_z
 _atom_site_occupancy
  Si  Si1  1  0.000000  0.500000  0.500000  1.0
  Si  Si2  1  0.500000  0.500000  0.000000  1.0
  Si  Si3  1  0.500000  0.000000  0.500000  1.0
  Si  Si4  1  0.000000  0.000000  0.000000  1.0
  O  O5  1  0.343790  0.156210  0.843790  1.0
  O  O6  1  0.156210  0.843790  0.343790  1.0
  O  O7  1  0.843790  0.343790  0.156210  1.0
  O  O8  1  0.656210  0.656210  0.656210  1.0
  O  O9  1  0.343790  0.343790  0.343790  1.0
  O  O10  1  0.156210  0.656210  0.843790  1.0
  O  O11  1  0.843790  0.156210  0.656210  1.0
  O  O12  1  0.656210  0.843790  0.156210  1.0
