# generated using pymatgen
data_Cu2HgGeSe4
_symmetry_space_group_name_H-M   'P 1'
_cell_length_a   5.86114721
_cell_length_b   5.86114721
_cell_length_c   6.96928181
_cell_angle_alpha   114.86607345
_cell_angle_beta   114.86607340
_cell_angle_gamma   90.00000007
_symmetry_Int_Tables_number   1
_chemical_formula_structural   Cu2HgGeSe4
_chemical_formula_sum   'Cu2 Hg1 Ge1 Se4'
_cell_volume   192.48243981
_cell_formula_units_Z   1
loop_
 _symmetry_equiv_pos_site_id
 _symmetry_equiv_pos_as_xyz
  1  'x, y, z'
loop_
 _atom_site_type_symbol
 _atom_site_label
 _atom_site_symmetry_multiplicity
 _atom_site_fract_x
 _atom_site_fract_y
 _atom_site_fract_z
 _atom_site_occupancy
  Cu  Cu1  1  0.250000  0.750000  0.500000  1.0
  Cu  Cu2  1  0.750000  0.250000  0.500000  1.0
  Hg  Hg3  1  0.000000  0.000000  0.000000  1.0
  Ge  Ge4  1  0.500000  0.500000  0.000000  1.0
  Se  Se5  1  0.407774  0.407774  0.274976  1.0
  Se  Se6  1  0.592226  0.132798  0.725024  1.0
  Se  Se7  1  0.132798  0.592226  0.725024  1.0
  Se  Se8  1  0.867202  0.867202  0.274976  1.0
