# generated using pymatgen
data_Cs2CaF4
_symmetry_space_group_name_H-M   'P 1'
_cell_length_a   4.56249967
_cell_length_b   4.56250008
_cell_length_c   8.19654081
_cell_angle_alpha   106.16266452
_cell_angle_beta   106.15987955
_cell_angle_gamma   89.99999997
_symmetry_Int_Tables_number   1
_chemical_formula_structural   Cs2CaF4
_chemical_formula_sum   'Cs2 Ca1 F4'
_cell_volume   156.84761863
_cell_formula_units_Z   1
loop_
 _symmetry_equiv_pos_site_id
 _symmetry_equiv_pos_as_xyz
  1  'x, y, z'
loop_
 _atom_site_type_symbol
 _atom_site_label
 _atom_site_symmetry_multiplicity
 _atom_site_fract_x
 _atom_site_fract_y
 _atom_site_fract_z
 _atom_site_occupancy
  Cs  Cs1  1  0.649272  0.649247  0.298543  1.0
  Cs  Cs2  1  0.350728  0.350753  0.701457  1.0
  Ca  Ca3  1  0.000000  0.000000  0.000000  1.0
  F  F4  1  0.500000  0.000000  0.000000  1.0
  F  F5  1  0.000000  0.500000  0.000000  1.0
  F  F6  1  0.848455  0.848463  0.696910  1.0
  F  F7  1  0.151545  0.151537  0.303090  1.0
