# generated using pymatgen
data_Hf5Te4
_symmetry_space_group_name_H-M   'P 1'
_cell_length_a   3.78323882
_cell_length_b   7.84586608
_cell_length_c   7.84586608
_cell_angle_alpha   86.66762977
_cell_angle_beta   76.04866986
_cell_angle_gamma   76.04866986
_symmetry_Int_Tables_number   1
_chemical_formula_structural   Hf5Te4
_chemical_formula_sum   'Hf5 Te4'
_cell_volume   219.34988104
_cell_formula_units_Z   1
loop_
 _symmetry_equiv_pos_site_id
 _symmetry_equiv_pos_as_xyz
  1  'x, y, z'
loop_
 _atom_site_type_symbol
 _atom_site_label
 _atom_site_symmetry_multiplicity
 _atom_site_fract_x
 _atom_site_fract_y
 _atom_site_fract_z
 _atom_site_occupancy
  Hf  Hf1  1  0.689382  0.942089  0.679147  1.0
  Hf  Hf2  1  0.368529  0.320853  0.942089  1.0
  Hf  Hf3  1  0.631471  0.679147  0.057911  1.0
  Hf  Hf4  1  0.310618  0.057911  0.320853  1.0
  Hf  Hf5  1  0.000000  0.000000  0.000000  1.0
  Te  Te6  1  0.948126  0.766283  0.337464  1.0
  Te  Te7  1  0.285591  0.662536  0.766283  1.0
  Te  Te8  1  0.714409  0.337464  0.233717  1.0
  Te  Te9  1  0.051874  0.233717  0.662536  1.0
