# generated using pymatgen
data_MgNi2
_symmetry_space_group_name_H-M   'P 1'
_cell_length_a   4.79256736
_cell_length_b   4.79256736
_cell_length_c   15.68498001
_cell_angle_alpha   90.00000000
_cell_angle_beta   90.00000000
_cell_angle_gamma   119.99461342
_symmetry_Int_Tables_number   1
_chemical_formula_structural   MgNi2
_chemical_formula_sum   'Mg8 Ni16'
_cell_volume   312.01438923
_cell_formula_units_Z   8
loop_
 _symmetry_equiv_pos_site_id
 _symmetry_equiv_pos_as_xyz
  1  'x, y, z'
loop_
 _atom_site_type_symbol
 _atom_site_label
 _atom_site_symmetry_multiplicity
 _atom_site_fract_x
 _atom_site_fract_y
 _atom_site_fract_z
 _atom_site_occupancy
  Mg  Mg1  1  0.000000  0.000000  0.593727  1.0
  Mg  Mg2  1  0.000000  0.000000  0.406273  1.0
  Mg  Mg3  1  0.000000  0.000000  0.093727  1.0
  Mg  Mg4  1  0.000000  0.000000  0.906273  1.0
  Mg  Mg5  1  0.666693  0.333307  0.344013  1.0
  Mg  Mg6  1  0.333307  0.666693  0.655987  1.0
  Mg  Mg7  1  0.333307  0.666693  0.844013  1.0
  Mg  Mg8  1  0.666693  0.333307  0.155987  1.0
  Ni  Ni9  1  0.666694  0.333306  0.625011  1.0
  Ni  Ni10  1  0.333306  0.666694  0.374989  1.0
  Ni  Ni11  1  0.333306  0.666694  0.125011  1.0
  Ni  Ni12  1  0.666694  0.333306  0.874989  1.0
  Ni  Ni13  1  0.500000  0.000000  0.500000  1.0
  Ni  Ni14  1  0.500000  0.500000  0.500000  1.0
  Ni  Ni15  1  0.000000  0.500000  0.500000  1.0
  Ni  Ni16  1  0.500000  0.000000  0.000000  1.0
  Ni  Ni17  1  0.500000  0.500000  0.000000  1.0
  Ni  Ni18  1  0.000000  0.500000  0.000000  1.0
  Ni  Ni19  1  0.835387  0.670781  0.750000  1.0
  Ni  Ni20  1  0.835384  0.164616  0.750000  1.0
  Ni  Ni21  1  0.329219  0.164613  0.750000  1.0
  Ni  Ni22  1  0.164613  0.329219  0.250000  1.0
  Ni  Ni23  1  0.164616  0.835384  0.250000  1.0
  Ni  Ni24  1  0.670781  0.835387  0.250000  1.0
