# generated using pymatgen
data_Ba(BeN)2
_symmetry_space_group_name_H-M   'P 1'
_cell_length_a   5.67536252
_cell_length_b   5.67536252
_cell_length_c   5.85114180
_cell_angle_alpha   119.01110061
_cell_angle_beta   119.01110059
_cell_angle_gamma   90.00000001
_symmetry_Int_Tables_number   1
_chemical_formula_structural   Ba(BeN)2
_chemical_formula_sum   'Ba2 Be4 N4'
_cell_volume   137.15068488
_cell_formula_units_Z   2
loop_
 _symmetry_equiv_pos_site_id
 _symmetry_equiv_pos_as_xyz
  1  'x, y, z'
loop_
 _atom_site_type_symbol
 _atom_site_label
 _atom_site_symmetry_multiplicity
 _atom_site_fract_x
 _atom_site_fract_y
 _atom_site_fract_z
 _atom_site_occupancy
  Ba  Ba1  1  0.750000  0.750000  0.500000  1.0
  Ba  Ba2  1  0.250000  0.250000  0.500000  1.0
  Be  Be3  1  0.628767  0.128767  0.000000  1.0
  Be  Be4  1  0.871233  0.628767  0.000000  1.0
  Be  Be5  1  0.128767  0.371233  0.000000  1.0
  Be  Be6  1  0.371233  0.871233  0.000000  1.0
  N  N7  1  0.333972  0.166028  0.000000  1.0
  N  N8  1  0.166028  0.666028  0.000000  1.0
  N  N9  1  0.666028  0.833972  0.000000  1.0
  N  N10  1  0.833972  0.333972  0.000000  1.0
