# generated using pymatgen
data_Ba(PIr)2
_symmetry_space_group_name_H-M   'P 1'
_cell_length_a   3.99072950
_cell_length_b   3.99072949
_cell_length_c   6.99095117
_cell_angle_alpha   106.58401946
_cell_angle_beta   106.58401941
_cell_angle_gamma   90.00000006
_symmetry_Int_Tables_number   1
_chemical_formula_structural   Ba(PIr)2
_chemical_formula_sum   'Ba1 P2 Ir2'
_cell_volume   101.86421501
_cell_formula_units_Z   1
loop_
 _symmetry_equiv_pos_site_id
 _symmetry_equiv_pos_as_xyz
  1  'x, y, z'
loop_
 _atom_site_type_symbol
 _atom_site_label
 _atom_site_symmetry_multiplicity
 _atom_site_fract_x
 _atom_site_fract_y
 _atom_site_fract_z
 _atom_site_occupancy
  Ba  Ba1  1  0.000000  0.000000  0.000000  1.0
  P  P2  1  0.648623  0.648623  0.297245  1.0
  P  P3  1  0.351377  0.351377  0.702755  1.0
  Ir  Ir4  1  0.750000  0.250000  0.500000  1.0
  Ir  Ir5  1  0.250000  0.750000  0.500000  1.0
