# generated using pymatgen
data_Zn13Fe
_symmetry_space_group_name_H-M   'P 1'
_cell_length_a   5.06607638
_cell_length_b   6.61718799
_cell_length_c   6.61718798
_cell_angle_alpha   70.62850425
_cell_angle_beta   81.22330761
_cell_angle_gamma   81.22330760
_symmetry_Int_Tables_number   1
_chemical_formula_structural   Zn13Fe
_chemical_formula_sum   'Zn13 Fe1'
_cell_volume   205.57972741
_cell_formula_units_Z   1
loop_
 _symmetry_equiv_pos_site_id
 _symmetry_equiv_pos_as_xyz
  1  'x, y, z'
loop_
 _atom_site_type_symbol
 _atom_site_label
 _atom_site_symmetry_multiplicity
 _atom_site_fract_x
 _atom_site_fract_y
 _atom_site_fract_z
 _atom_site_occupancy
  Zn  Zn1  1  0.000000  0.000000  0.000000  1.0
  Zn  Zn2  1  0.937865  0.385425  0.385425  1.0
  Zn  Zn3  1  0.062135  0.614575  0.614575  1.0
  Zn  Zn4  1  0.375546  0.777253  0.777253  1.0
  Zn  Zn5  1  0.624454  0.222747  0.222747  1.0
  Zn  Zn6  1  0.313998  0.634933  0.213515  1.0
  Zn  Zn7  1  0.686002  0.786485  0.365067  1.0
  Zn  Zn8  1  0.686002  0.365067  0.786485  1.0
  Zn  Zn9  1  0.313998  0.213515  0.634933  1.0
  Zn  Zn10  1  0.799630  0.643997  0.004761  1.0
  Zn  Zn11  1  0.200370  0.995239  0.356003  1.0
  Zn  Zn12  1  0.200370  0.356003  0.995239  1.0
  Zn  Zn13  1  0.799630  0.004761  0.643997  1.0
  Fe  Fe14  1  0.500000  0.000000  0.000000  1.0
