# generated using pymatgen
data_Zr6FeSb2
_symmetry_space_group_name_H-M   'P 1'
_cell_length_a   7.84904925
_cell_length_b   7.84904925
_cell_length_c   3.62137042
_cell_angle_alpha   90.00000000
_cell_angle_beta   90.00000000
_cell_angle_gamma   119.99999995
_symmetry_Int_Tables_number   1
_chemical_formula_structural   Zr6FeSb2
_chemical_formula_sum   'Zr6 Fe1 Sb2'
_cell_volume   193.21359893
_cell_formula_units_Z   1
loop_
 _symmetry_equiv_pos_site_id
 _symmetry_equiv_pos_as_xyz
  1  'x, y, z'
loop_
 _atom_site_type_symbol
 _atom_site_label
 _atom_site_symmetry_multiplicity
 _atom_site_fract_x
 _atom_site_fract_y
 _atom_site_fract_z
 _atom_site_occupancy
  Zr  Zr1  1  0.600130  0.000000  0.500000  1.0
  Zr  Zr2  1  0.000000  0.240023  0.000000  1.0
  Zr  Zr3  1  0.759977  0.759977  0.000000  1.0
  Zr  Zr4  1  0.399870  0.399870  0.500000  1.0
  Zr  Zr5  1  0.000000  0.600130  0.500000  1.0
  Zr  Zr6  1  0.240023  0.000000  0.000000  1.0
  Fe  Fe7  1  0.000000  0.000000  0.500000  1.0
  Sb  Sb8  1  0.333333  0.666667  0.000000  1.0
  Sb  Sb9  1  0.666667  0.333333  0.000000  1.0
