# generated using pymatgen
data_Hf6NiSb2
_symmetry_space_group_name_H-M   'P 1'
_cell_length_a   7.71897179
_cell_length_b   7.71897179
_cell_length_c   3.61915486
_cell_angle_alpha   90.00000000
_cell_angle_beta   90.00000000
_cell_angle_gamma   120.00000004
_symmetry_Int_Tables_number   1
_chemical_formula_structural   Hf6NiSb2
_chemical_formula_sum   'Hf6 Ni1 Sb2'
_cell_volume   186.74832085
_cell_formula_units_Z   1
loop_
 _symmetry_equiv_pos_site_id
 _symmetry_equiv_pos_as_xyz
  1  'x, y, z'
loop_
 _atom_site_type_symbol
 _atom_site_label
 _atom_site_symmetry_multiplicity
 _atom_site_fract_x
 _atom_site_fract_y
 _atom_site_fract_z
 _atom_site_occupancy
  Hf  Hf1  1  0.759622  0.000000  0.500000  1.0
  Hf  Hf2  1  0.240378  0.240378  0.500000  1.0
  Hf  Hf3  1  0.000000  0.759622  0.500000  1.0
  Hf  Hf4  1  0.000000  0.397817  0.000000  1.0
  Hf  Hf5  1  0.602183  0.602183  0.000000  1.0
  Hf  Hf6  1  0.397817  0.000000  0.000000  1.0
  Ni  Ni7  1  0.000000  0.000000  0.000000  1.0
  Sb  Sb8  1  0.333333  0.666667  0.500000  1.0
  Sb  Sb9  1  0.666667  0.333333  0.500000  1.0
