# generated using pymatgen
data_NaC
_symmetry_space_group_name_H-M   'P 1'
_cell_length_a   4.17640126
_cell_length_b   4.68075360
_cell_length_c   4.68075360
_cell_angle_alpha   70.97213464
_cell_angle_beta   63.50466946
_cell_angle_gamma   63.50466935
_symmetry_Int_Tables_number   1
_chemical_formula_structural   NaC
_chemical_formula_sum   'Na2 C2'
_cell_volume   72.36397627
_cell_formula_units_Z   2
loop_
 _symmetry_equiv_pos_site_id
 _symmetry_equiv_pos_as_xyz
  1  'x, y, z'
loop_
 _atom_site_type_symbol
 _atom_site_label
 _atom_site_symmetry_multiplicity
 _atom_site_fract_x
 _atom_site_fract_y
 _atom_site_fract_z
 _atom_site_occupancy
  Na  Na1  1  0.755025  0.244975  0.244975  1.0
  Na  Na2  1  0.244975  0.755025  0.755025  1.0
  C  C3  1  0.000000  0.616293  0.383707  1.0
  C  C4  1  0.000000  0.383707  0.616293  1.0
