# generated using pymatgen
data_BaMg2
_symmetry_space_group_name_H-M   'P 1'
_cell_length_a   6.66604282
_cell_length_b   6.66604282
_cell_length_c   10.58828933
_cell_angle_alpha   90.00000000
_cell_angle_beta   90.00000000
_cell_angle_gamma   120.00000002
_symmetry_Int_Tables_number   1
_chemical_formula_structural   BaMg2
_chemical_formula_sum   'Ba4 Mg8'
_cell_volume   407.46717643
_cell_formula_units_Z   4
loop_
 _symmetry_equiv_pos_site_id
 _symmetry_equiv_pos_as_xyz
  1  'x, y, z'
loop_
 _atom_site_type_symbol
 _atom_site_label
 _atom_site_symmetry_multiplicity
 _atom_site_fract_x
 _atom_site_fract_y
 _atom_site_fract_z
 _atom_site_occupancy
  Ba  Ba1  1  0.333333  0.666667  0.443115  1.0
  Ba  Ba2  1  0.666667  0.333333  0.943115  1.0
  Ba  Ba3  1  0.666667  0.333333  0.556885  1.0
  Ba  Ba4  1  0.333333  0.666667  0.056885  1.0
  Mg  Mg5  1  0.161353  0.322706  0.750000  1.0
  Mg  Mg6  1  0.838647  0.161353  0.250000  1.0
  Mg  Mg7  1  0.322706  0.161353  0.250000  1.0
  Mg  Mg8  1  0.677294  0.838647  0.750000  1.0
  Mg  Mg9  1  0.000000  0.000000  0.000000  1.0
  Mg  Mg10  1  0.000000  0.000000  0.500000  1.0
  Mg  Mg11  1  0.838647  0.677294  0.250000  1.0
  Mg  Mg12  1  0.161353  0.838647  0.750000  1.0
