# generated using pymatgen
data_ErAu
_symmetry_space_group_name_H-M   'P 1'
_cell_length_a   3.70282989
_cell_length_b   4.66132308
_cell_length_c   5.75398043
_cell_angle_alpha   90.00000000
_cell_angle_beta   108.76954490
_cell_angle_gamma   90.00000000
_symmetry_Int_Tables_number   1
_chemical_formula_structural   ErAu
_chemical_formula_sum   'Er2 Au2'
_cell_volume   94.03271251
_cell_formula_units_Z   2
loop_
 _symmetry_equiv_pos_site_id
 _symmetry_equiv_pos_as_xyz
  1  'x, y, z'
loop_
 _atom_site_type_symbol
 _atom_site_label
 _atom_site_symmetry_multiplicity
 _atom_site_fract_x
 _atom_site_fract_y
 _atom_site_fract_z
 _atom_site_occupancy
  Er  Er1  1  0.138910  0.750000  0.277820  1.0
  Er  Er2  1  0.861090  0.250000  0.722180  1.0
  Au  Au3  1  0.410876  0.750000  0.821753  1.0
  Au  Au4  1  0.589124  0.250000  0.178247  1.0
