# generated using pymatgen
data_SrSi2
_symmetry_space_group_name_H-M   'P 1'
_cell_length_a   4.43767635
_cell_length_b   4.43767600
_cell_length_c   7.65567397
_cell_angle_alpha   106.84773621
_cell_angle_beta   106.84773060
_cell_angle_gamma   89.99999671
_symmetry_Int_Tables_number   1
_chemical_formula_structural   SrSi2
_chemical_formula_sum   'Sr2 Si4'
_cell_volume   137.51681149
_cell_formula_units_Z   2
loop_
 _symmetry_equiv_pos_site_id
 _symmetry_equiv_pos_as_xyz
  1  'x, y, z'
loop_
 _atom_site_type_symbol
 _atom_site_label
 _atom_site_symmetry_multiplicity
 _atom_site_fract_x
 _atom_site_fract_y
 _atom_site_fract_z
 _atom_site_occupancy
  Sr  Sr1  1  0.625000  0.875000  0.750000  1.0
  Sr  Sr2  1  0.375000  0.125000  0.250000  1.0
  Si  Si3  1  0.208184  0.458184  0.916366  1.0
  Si  Si4  1  0.958184  0.708184  0.416366  1.0
  Si  Si5  1  0.041816  0.291816  0.583634  1.0
  Si  Si6  1  0.791816  0.541816  0.083634  1.0
