# generated using pymatgen
data_Li2S
_symmetry_space_group_name_H-M   'P 1'
_cell_length_a   3.80822872
_cell_length_b   6.31091012
_cell_length_c   7.26217659
_cell_angle_alpha   90.00000000
_cell_angle_beta   90.00000000
_cell_angle_gamma   90.00000000
_symmetry_Int_Tables_number   1
_chemical_formula_structural   Li2S
_chemical_formula_sum   'Li8 S4'
_cell_volume   174.53471620
_cell_formula_units_Z   4
loop_
 _symmetry_equiv_pos_site_id
 _symmetry_equiv_pos_as_xyz
  1  'x, y, z'
loop_
 _atom_site_type_symbol
 _atom_site_label
 _atom_site_symmetry_multiplicity
 _atom_site_fract_x
 _atom_site_fract_y
 _atom_site_fract_z
 _atom_site_occupancy
  Li  Li1  1  0.250000  0.858811  0.928682  1.0
  Li  Li2  1  0.750000  0.141189  0.071318  1.0
  Li  Li3  1  0.250000  0.358811  0.571318  1.0
  Li  Li4  1  0.750000  0.641189  0.428682  1.0
  Li  Li5  1  0.750000  0.022414  0.665595  1.0
  Li  Li6  1  0.250000  0.977586  0.334405  1.0
  Li  Li7  1  0.750000  0.522414  0.834405  1.0
  Li  Li8  1  0.250000  0.477586  0.165595  1.0
  S  S9  1  0.250000  0.245025  0.888828  1.0
  S  S10  1  0.750000  0.754975  0.111172  1.0
  S  S11  1  0.250000  0.745025  0.611172  1.0
  S  S12  1  0.750000  0.254975  0.388828  1.0
