# generated using pymatgen
data_MgPdF6
_symmetry_space_group_name_H-M   'P 1'
_cell_length_a   5.43568503
_cell_length_b   5.43568503
_cell_length_c   5.43568503
_cell_angle_alpha   56.03476837
_cell_angle_beta   56.03476843
_cell_angle_gamma   56.03476839
_symmetry_Int_Tables_number   1
_chemical_formula_structural   MgPdF6
_chemical_formula_sum   'Mg1 Pd1 F6'
_cell_volume   103.13503963
_cell_formula_units_Z   1
loop_
 _symmetry_equiv_pos_site_id
 _symmetry_equiv_pos_as_xyz
  1  'x, y, z'
loop_
 _atom_site_type_symbol
 _atom_site_label
 _atom_site_symmetry_multiplicity
 _atom_site_fract_x
 _atom_site_fract_y
 _atom_site_fract_z
 _atom_site_occupancy
  Mg  Mg1  1  0.500000  0.500000  0.500000  1.0
  Pd  Pd2  1  0.000000  0.000000  0.000000  1.0
  F  F3  1  0.378455  0.111120  0.757871  1.0
  F  F4  1  0.111120  0.757871  0.378455  1.0
  F  F5  1  0.242129  0.621545  0.888880  1.0
  F  F6  1  0.888880  0.242129  0.621545  1.0
  F  F7  1  0.621545  0.888880  0.242129  1.0
  F  F8  1  0.757871  0.378455  0.111120  1.0
