# generated using pymatgen
data_BaCd2
_symmetry_space_group_name_H-M   'P 1'
_cell_length_a   5.32663848
_cell_length_b   6.66290241
_cell_length_c   6.66290242
_cell_angle_alpha   78.97396024
_cell_angle_beta   66.43910048
_cell_angle_gamma   66.43910043
_symmetry_Int_Tables_number   1
_chemical_formula_structural   BaCd2
_chemical_formula_sum   'Ba2 Cd4'
_cell_volume   198.54947054
_cell_formula_units_Z   2
loop_
 _symmetry_equiv_pos_site_id
 _symmetry_equiv_pos_as_xyz
  1  'x, y, z'
loop_
 _atom_site_type_symbol
 _atom_site_label
 _atom_site_symmetry_multiplicity
 _atom_site_fract_x
 _atom_site_fract_y
 _atom_site_fract_z
 _atom_site_occupancy
  Ba  Ba1  1  0.547186  0.702814  0.202814  1.0
  Ba  Ba2  1  0.452814  0.297186  0.797186  1.0
  Cd  Cd3  1  0.835376  0.725916  0.603332  1.0
  Cd  Cd4  1  0.164624  0.274084  0.396668  1.0
  Cd  Cd5  1  0.835376  0.103332  0.225916  1.0
  Cd  Cd6  1  0.164624  0.896668  0.774084  1.0
