# generated using pymatgen
data_Be2Nb3
_symmetry_space_group_name_H-M   'P 1'
_cell_length_a   3.36409219
_cell_length_b   6.53807234
_cell_length_c   6.53807234
_cell_angle_alpha   90.00000000
_cell_angle_beta   90.00000000
_cell_angle_gamma   90.00000000
_symmetry_Int_Tables_number   1
_chemical_formula_structural   Be2Nb3
_chemical_formula_sum   'Be4 Nb6'
_cell_volume   143.80279649
_cell_formula_units_Z   2
loop_
 _symmetry_equiv_pos_site_id
 _symmetry_equiv_pos_as_xyz
  1  'x, y, z'
loop_
 _atom_site_type_symbol
 _atom_site_label
 _atom_site_symmetry_multiplicity
 _atom_site_fract_x
 _atom_site_fract_y
 _atom_site_fract_z
 _atom_site_occupancy
  Be  Be1  1  0.000000  0.386744  0.886744  1.0
  Be  Be2  1  0.000000  0.113256  0.386744  1.0
  Be  Be3  1  0.000000  0.886744  0.613256  1.0
  Be  Be4  1  0.000000  0.613256  0.113256  1.0
  Nb  Nb5  1  0.000000  0.000000  0.000000  1.0
  Nb  Nb6  1  0.000000  0.500000  0.500000  1.0
  Nb  Nb7  1  0.500000  0.179242  0.679242  1.0
  Nb  Nb8  1  0.500000  0.320758  0.179242  1.0
  Nb  Nb9  1  0.500000  0.679242  0.820758  1.0
  Nb  Nb10  1  0.500000  0.820758  0.320758  1.0
