# generated using pymatgen
data_Be3Nb
_symmetry_space_group_name_H-M   'P 1'
_cell_length_a   7.50342741
_cell_length_b   7.50342741
_cell_length_c   7.50342741
_cell_angle_alpha   35.43005216
_cell_angle_beta   35.43005222
_cell_angle_gamma   35.43005217
_symmetry_Int_Tables_number   1
_chemical_formula_structural   Be3Nb
_chemical_formula_sum   'Be9 Nb3'
_cell_volume   126.85655167
_cell_formula_units_Z   3
loop_
 _symmetry_equiv_pos_site_id
 _symmetry_equiv_pos_as_xyz
  1  'x, y, z'
loop_
 _atom_site_type_symbol
 _atom_site_label
 _atom_site_symmetry_multiplicity
 _atom_site_fract_x
 _atom_site_fract_y
 _atom_site_fract_z
 _atom_site_occupancy
  Be  Be1  1  0.500000  0.500000  0.500000  1.0
  Be  Be2  1  0.334363  0.334363  0.334363  1.0
  Be  Be3  1  0.665636  0.665636  0.665636  1.0
  Be  Be4  1  0.583769  0.075647  0.583769  1.0
  Be  Be5  1  0.583769  0.583769  0.075647  1.0
  Be  Be6  1  0.075647  0.583769  0.583769  1.0
  Be  Be7  1  0.924353  0.416231  0.416231  1.0
  Be  Be8  1  0.416231  0.924353  0.416231  1.0
  Be  Be9  1  0.416231  0.416231  0.924353  1.0
  Nb  Nb10  1  0.000000  0.000000  0.000000  1.0
  Nb  Nb11  1  0.140278  0.140278  0.140278  1.0
  Nb  Nb12  1  0.859722  0.859722  0.859722  1.0
