# generated using pymatgen
data_Cu2SnTe3
_symmetry_space_group_name_H-M   'P 1'
_cell_length_a   4.40991030
_cell_length_b   6.11366797
_cell_length_c   7.55422378
_cell_angle_alpha   113.86933996
_cell_angle_beta   106.97076696
_cell_angle_gamma   90.00000003
_symmetry_Int_Tables_number   1
_chemical_formula_structural   Cu2SnTe3
_chemical_formula_sum   'Cu2 Sn1 Te3'
_cell_volume   176.50575978
_cell_formula_units_Z   1
loop_
 _symmetry_equiv_pos_site_id
 _symmetry_equiv_pos_as_xyz
  1  'x, y, z'
loop_
 _atom_site_type_symbol
 _atom_site_label
 _atom_site_symmetry_multiplicity
 _atom_site_fract_x
 _atom_site_fract_y
 _atom_site_fract_z
 _atom_site_occupancy
  Cu  Cu1  1  0.829693  0.569143  0.659385  1.0
  Cu  Cu2  1  0.170307  0.909758  0.340615  1.0
  Sn  Sn3  1  0.500000  0.266153  0.000000  1.0
  Te  Te4  1  0.680290  0.699040  0.360580  1.0
  Te  Te5  1  0.319710  0.338460  0.639420  1.0
  Te  Te6  1  0.000000  0.959448  0.000000  1.0
