# generated using pymatgen
data_Zr6Al2Ni
_symmetry_space_group_name_H-M   'P 1'
_cell_length_a   7.95176262
_cell_length_b   7.95176263
_cell_length_c   3.35807253
_cell_angle_alpha   90.00000000
_cell_angle_beta   90.00000000
_cell_angle_gamma   119.99999998
_symmetry_Int_Tables_number   1
_chemical_formula_structural   Zr6Al2Ni
_chemical_formula_sum   'Zr6 Al2 Ni1'
_cell_volume   183.88551400
_cell_formula_units_Z   1
loop_
 _symmetry_equiv_pos_site_id
 _symmetry_equiv_pos_as_xyz
  1  'x, y, z'
loop_
 _atom_site_type_symbol
 _atom_site_label
 _atom_site_symmetry_multiplicity
 _atom_site_fract_x
 _atom_site_fract_y
 _atom_site_fract_z
 _atom_site_occupancy
  Zr  Zr1  1  0.254963  0.000000  0.000000  1.0
  Zr  Zr2  1  0.745037  0.745037  0.000000  1.0
  Zr  Zr3  1  0.000000  0.254963  0.000000  1.0
  Zr  Zr4  1  0.598178  0.000000  0.500000  1.0
  Zr  Zr5  1  0.401822  0.401822  0.500000  1.0
  Zr  Zr6  1  0.000000  0.598178  0.500000  1.0
  Al  Al7  1  0.666667  0.333333  0.000000  1.0
  Al  Al8  1  0.333333  0.666667  0.000000  1.0
  Ni  Ni9  1  0.000000  0.000000  0.500000  1.0
