# generated using pymatgen
data_Ga2O3
_symmetry_space_group_name_H-M   'P 1'
_cell_length_a   2.82039011
_cell_length_b   4.90431487
_cell_length_c   7.28402825
_cell_angle_alpha   90.00000000
_cell_angle_beta   90.00000000
_cell_angle_gamma   106.71083845
_symmetry_Int_Tables_number   1
_chemical_formula_structural   Ga2O3
_chemical_formula_sum   'Ga4 O6'
_cell_volume   96.49826976
_cell_formula_units_Z   2
loop_
 _symmetry_equiv_pos_site_id
 _symmetry_equiv_pos_as_xyz
  1  'x, y, z'
loop_
 _atom_site_type_symbol
 _atom_site_label
 _atom_site_symmetry_multiplicity
 _atom_site_fract_x
 _atom_site_fract_y
 _atom_site_fract_z
 _atom_site_occupancy
  Ga  Ga1  1  0.751976  0.503952  0.250000  1.0
  Ga  Ga2  1  0.248024  0.496048  0.750000  1.0
  Ga  Ga3  1  0.000000  0.000000  0.500000  1.0
  Ga  Ga4  1  0.000000  0.000000  0.000000  1.0
  O  O5  1  0.636875  0.273750  0.925233  1.0
  O  O6  1  0.363125  0.726250  0.074767  1.0
  O  O7  1  0.363125  0.726250  0.425233  1.0
  O  O8  1  0.636875  0.273750  0.574767  1.0
  O  O9  1  0.892966  0.785933  0.750000  1.0
  O  O10  1  0.107034  0.214067  0.250000  1.0
