# generated using pymatgen
data_YZnGe
_symmetry_space_group_name_H-M   'P 1'
_cell_length_a   4.24290651
_cell_length_b   4.24290650
_cell_length_c   15.79467042
_cell_angle_alpha   90.00000000
_cell_angle_beta   90.00000000
_cell_angle_gamma   119.99999997
_symmetry_Int_Tables_number   1
_chemical_formula_structural   YZnGe
_chemical_formula_sum   'Y4 Zn4 Ge4'
_cell_volume   246.24539854
_cell_formula_units_Z   4
loop_
 _symmetry_equiv_pos_site_id
 _symmetry_equiv_pos_as_xyz
  1  'x, y, z'
loop_
 _atom_site_type_symbol
 _atom_site_label
 _atom_site_symmetry_multiplicity
 _atom_site_fract_x
 _atom_site_fract_y
 _atom_site_fract_z
 _atom_site_occupancy
  Y  Y1  1  0.000000  0.000000  0.750000  1.0
  Y  Y2  1  0.000000  0.000000  0.250000  1.0
  Y  Y3  1  0.000000  0.000000  0.500000  1.0
  Y  Y4  1  0.000000  0.000000  0.000000  1.0
  Zn  Zn5  1  0.666667  0.333333  0.852659  1.0
  Zn  Zn6  1  0.666667  0.333333  0.647341  1.0
  Zn  Zn7  1  0.333333  0.666667  0.147341  1.0
  Zn  Zn8  1  0.333333  0.666667  0.352659  1.0
  Ge  Ge9  1  0.666667  0.333333  0.113645  1.0
  Ge  Ge10  1  0.666667  0.333333  0.386355  1.0
  Ge  Ge11  1  0.333333  0.666667  0.886355  1.0
  Ge  Ge12  1  0.333333  0.666667  0.613645  1.0
