# generated using pymatgen
data_ScSn2
_symmetry_space_group_name_H-M   'P 1'
_cell_length_a   4.28205567
_cell_length_b   4.28205567
_cell_length_c   15.94725753
_cell_angle_alpha   97.71564664
_cell_angle_beta   97.71564666
_cell_angle_gamma   90.00000007
_symmetry_Int_Tables_number   1
_chemical_formula_structural   ScSn2
_chemical_formula_sum   'Sc4 Sn8'
_cell_volume   287.08991033
_cell_formula_units_Z   4
loop_
 _symmetry_equiv_pos_site_id
 _symmetry_equiv_pos_as_xyz
  1  'x, y, z'
loop_
 _atom_site_type_symbol
 _atom_site_label
 _atom_site_symmetry_multiplicity
 _atom_site_fract_x
 _atom_site_fract_y
 _atom_site_fract_z
 _atom_site_occupancy
  Sc  Sc1  1  0.951582  0.201582  0.403165  1.0
  Sc  Sc2  1  0.701582  0.451582  0.903165  1.0
  Sc  Sc3  1  0.048418  0.798418  0.596835  1.0
  Sc  Sc4  1  0.298418  0.548418  0.096835  1.0
  Sn  Sn5  1  0.783423  0.033423  0.066846  1.0
  Sn  Sn6  1  0.533423  0.283423  0.566846  1.0
  Sn  Sn7  1  0.216577  0.966577  0.933154  1.0
  Sn  Sn8  1  0.466577  0.716577  0.433154  1.0
  Sn  Sn9  1  0.125000  0.375000  0.750000  1.0
  Sn  Sn10  1  0.875000  0.625000  0.250000  1.0
  Sn  Sn11  1  0.375000  0.125000  0.250000  1.0
  Sn  Sn12  1  0.625000  0.875000  0.750000  1.0
