# generated using pymatgen
data_PtN
_symmetry_space_group_name_H-M   'P 1'
_cell_length_a   3.38099575
_cell_length_b   3.38099575
_cell_length_c   3.38099575
_cell_angle_alpha   59.99999992
_cell_angle_beta   59.99999993
_cell_angle_gamma   60.00000000
_symmetry_Int_Tables_number   1
_chemical_formula_structural   PtN
_chemical_formula_sum   'Pt1 N1'
_cell_volume   27.32869390
_cell_formula_units_Z   1
loop_
 _symmetry_equiv_pos_site_id
 _symmetry_equiv_pos_as_xyz
  1  'x, y, z'
loop_
 _atom_site_type_symbol
 _atom_site_label
 _atom_site_symmetry_multiplicity
 _atom_site_fract_x
 _atom_site_fract_y
 _atom_site_fract_z
 _atom_site_occupancy
  Pt  Pt1  1  0.000000  0.000000  0.000000  1.0
  N  N2  1  0.250000  0.250000  0.250000  1.0
