# generated using pymatgen
data_NaYF4
_symmetry_space_group_name_H-M   'P 1'
_cell_length_a   7.77805346
_cell_length_b   10.24221163
_cell_length_c   6.66396141
_cell_angle_alpha   29.26629523
_cell_angle_beta   54.29649956
_cell_angle_gamma   40.58765412
_symmetry_Int_Tables_number   1
_chemical_formula_structural   NaYF4
_chemical_formula_sum   'Na2 Y2 F8'
_cell_volume   163.57790972
_cell_formula_units_Z   2
loop_
 _symmetry_equiv_pos_site_id
 _symmetry_equiv_pos_as_xyz
  1  'x, y, z'
loop_
 _atom_site_type_symbol
 _atom_site_label
 _atom_site_symmetry_multiplicity
 _atom_site_fract_x
 _atom_site_fract_y
 _atom_site_fract_z
 _atom_site_occupancy
  Na  Na1  1  0.499999  0.000000  0.000000  1.0
  Na  Na2  1  0.250001  0.500000  0.000000  1.0
  Y  Y3  1  0.000001  0.000000  0.000000  1.0
  Y  Y4  1  0.749999  0.500000  0.000000  1.0
  F  F5  1  0.375000  0.980974  0.769027  1.0
  F  F6  1  0.105970  0.519052  0.730937  1.0
  F  F7  1  0.375000  0.519026  0.230973  1.0
  F  F8  1  0.874990  0.019052  0.730937  1.0
  F  F9  1  0.105976  0.019026  0.230973  1.0
  F  F10  1  0.875010  0.480948  0.269063  1.0
  F  F11  1  0.644024  0.480974  0.769027  1.0
  F  F12  1  0.644030  0.980948  0.269063  1.0
