# generated using pymatgen
data_Na3PSO3
_symmetry_space_group_name_H-M   'P 1'
_cell_length_a   6.30636482
_cell_length_b   6.30636509
_cell_length_c   6.30636460
_cell_angle_alpha   84.89448363
_cell_angle_beta   84.89448337
_cell_angle_gamma   84.89448058
_symmetry_Int_Tables_number   1
_chemical_formula_structural   Na3PSO3
_chemical_formula_sum   'Na6 P2 S2 O6'
_cell_volume   247.98725172
_cell_formula_units_Z   2
loop_
 _symmetry_equiv_pos_site_id
 _symmetry_equiv_pos_as_xyz
  1  'x, y, z'
loop_
 _atom_site_type_symbol
 _atom_site_label
 _atom_site_symmetry_multiplicity
 _atom_site_fract_x
 _atom_site_fract_y
 _atom_site_fract_z
 _atom_site_occupancy
  Na  Na1  1  0.494878  0.118398  0.810237  1.0
  Na  Na2  1  0.810237  0.494878  0.118398  1.0
  Na  Na3  1  0.118398  0.810237  0.494878  1.0
  Na  Na4  1  0.618398  0.994878  0.310237  1.0
  Na  Na5  1  0.310237  0.618398  0.994878  1.0
  Na  Na6  1  0.994878  0.310237  0.618398  1.0
  P  P7  1  0.092968  0.092968  0.092968  1.0
  P  P8  1  0.592968  0.592968  0.592968  1.0
  S  S9  1  0.415636  0.415636  0.415636  1.0
  S  S10  1  0.915636  0.915636  0.915636  1.0
  O  O11  1  0.135982  0.304255  0.956778  1.0
  O  O12  1  0.956778  0.135982  0.304255  1.0
  O  O13  1  0.304255  0.956778  0.135982  1.0
  O  O14  1  0.804255  0.635982  0.456778  1.0
  O  O15  1  0.456778  0.804255  0.635982  1.0
  O  O16  1  0.635982  0.456778  0.804255  1.0
