# generated using pymatgen
data_CeSe2
_symmetry_space_group_name_H-M   'P 1'
_cell_length_a   4.21209302
_cell_length_b   8.41749365
_cell_length_c   8.33166708
_cell_angle_alpha   90.00266671
_cell_angle_beta   90.00000000
_cell_angle_gamma   90.00000000
_symmetry_Int_Tables_number   1
_chemical_formula_structural   CeSe2
_chemical_formula_sum   'Ce4 Se8'
_cell_volume   295.40147430
_cell_formula_units_Z   4
loop_
 _symmetry_equiv_pos_site_id
 _symmetry_equiv_pos_as_xyz
  1  'x, y, z'
loop_
 _atom_site_type_symbol
 _atom_site_label
 _atom_site_symmetry_multiplicity
 _atom_site_fract_x
 _atom_site_fract_y
 _atom_site_fract_z
 _atom_site_occupancy
  Ce  Ce1  1  0.245692  0.625105  0.269742  1.0
  Ce  Ce2  1  0.745692  0.874895  0.730258  1.0
  Ce  Ce3  1  0.754308  0.374895  0.730258  1.0
  Ce  Ce4  1  0.254308  0.125105  0.269742  1.0
  Se  Se5  1  0.258727  0.375100  0.999962  1.0
  Se  Se6  1  0.758727  0.124900  0.000038  1.0
  Se  Se7  1  0.741273  0.624900  0.000038  1.0
  Se  Se8  1  0.241273  0.875100  0.999962  1.0
  Se  Se9  1  0.250929  0.124958  0.635704  1.0
  Se  Se10  1  0.750929  0.375042  0.364296  1.0
  Se  Se11  1  0.749071  0.875042  0.364296  1.0
  Se  Se12  1  0.249071  0.624958  0.635704  1.0
