# generated using pymatgen
data_TmGa2Pd
_symmetry_space_group_name_H-M   'P 1'
_cell_length_a   4.39651187
_cell_length_b   5.49704983
_cell_length_c   6.62556390
_cell_angle_alpha   90.00000000
_cell_angle_beta   90.00000000
_cell_angle_gamma   113.57176457
_symmetry_Int_Tables_number   1
_chemical_formula_structural   TmGa2Pd
_chemical_formula_sum   'Tm2 Ga4 Pd2'
_cell_volume   146.76470586
_cell_formula_units_Z   2
loop_
 _symmetry_equiv_pos_site_id
 _symmetry_equiv_pos_as_xyz
  1  'x, y, z'
loop_
 _atom_site_type_symbol
 _atom_site_label
 _atom_site_symmetry_multiplicity
 _atom_site_fract_x
 _atom_site_fract_y
 _atom_site_fract_z
 _atom_site_occupancy
  Tm  Tm1  1  0.086971  0.173943  0.750000  1.0
  Tm  Tm2  1  0.913029  0.826057  0.250000  1.0
  Ga  Ga3  1  0.371991  0.743982  0.947809  1.0
  Ga  Ga4  1  0.628009  0.256018  0.052191  1.0
  Ga  Ga5  1  0.628009  0.256018  0.447809  1.0
  Ga  Ga6  1  0.371991  0.743982  0.552191  1.0
  Pd  Pd7  1  0.799352  0.598705  0.750000  1.0
  Pd  Pd8  1  0.200648  0.401295  0.250000  1.0
