# generated using pymatgen
data_CdSb
_symmetry_space_group_name_H-M   'P 1'
_cell_length_a   6.59965947
_cell_length_b   8.42698317
_cell_length_c   8.74758238
_cell_angle_alpha   90.00000000
_cell_angle_beta   90.00000000
_cell_angle_gamma   90.00000000
_symmetry_Int_Tables_number   1
_chemical_formula_structural   CdSb
_chemical_formula_sum   'Cd8 Sb8'
_cell_volume   486.49871225
_cell_formula_units_Z   8
loop_
 _symmetry_equiv_pos_site_id
 _symmetry_equiv_pos_as_xyz
  1  'x, y, z'
loop_
 _atom_site_type_symbol
 _atom_site_label
 _atom_site_symmetry_multiplicity
 _atom_site_fract_x
 _atom_site_fract_y
 _atom_site_fract_z
 _atom_site_occupancy
  Cd  Cd1  1  0.453461  0.121297  0.866956  1.0
  Cd  Cd2  1  0.953461  0.378703  0.133044  1.0
  Cd  Cd3  1  0.546539  0.621297  0.633044  1.0
  Cd  Cd4  1  0.046539  0.878703  0.366956  1.0
  Cd  Cd5  1  0.546539  0.878703  0.133044  1.0
  Cd  Cd6  1  0.046539  0.621297  0.866956  1.0
  Cd  Cd7  1  0.453461  0.378703  0.366956  1.0
  Cd  Cd8  1  0.953461  0.121297  0.633044  1.0
  Sb  Sb9  1  0.138670  0.073035  0.103672  1.0
  Sb  Sb10  1  0.638670  0.426965  0.896328  1.0
  Sb  Sb11  1  0.861330  0.573035  0.396328  1.0
  Sb  Sb12  1  0.361330  0.926965  0.603672  1.0
  Sb  Sb13  1  0.861330  0.926965  0.896328  1.0
  Sb  Sb14  1  0.361330  0.573035  0.103672  1.0
  Sb  Sb15  1  0.138670  0.426965  0.603672  1.0
  Sb  Sb16  1  0.638670  0.073035  0.396328  1.0
