# generated using pymatgen
data_GaAs
_symmetry_space_group_name_H-M   'P 1'
_cell_length_a   7.05311377
_cell_length_b   7.05311377
_cell_length_c   7.05311377
_cell_angle_alpha   90.00000000
_cell_angle_beta   90.00000000
_cell_angle_gamma   90.00000000
_symmetry_Int_Tables_number   1
_chemical_formula_structural   GaAs
_chemical_formula_sum   'Ga8 As8'
_cell_volume   350.86711655
_cell_formula_units_Z   8
loop_
 _symmetry_equiv_pos_site_id
 _symmetry_equiv_pos_as_xyz
  1  'x, y, z'
loop_
 _atom_site_type_symbol
 _atom_site_label
 _atom_site_symmetry_multiplicity
 _atom_site_fract_x
 _atom_site_fract_y
 _atom_site_fract_z
 _atom_site_occupancy
  Ga  Ga1  1  0.341641  0.341641  0.341641  1.0
  Ga  Ga2  1  0.158359  0.658359  0.841641  1.0
  Ga  Ga3  1  0.841641  0.158359  0.658359  1.0
  Ga  Ga4  1  0.658359  0.841641  0.158359  1.0
  Ga  Ga5  1  0.658359  0.658359  0.658359  1.0
  Ga  Ga6  1  0.841641  0.341641  0.158359  1.0
  Ga  Ga7  1  0.158359  0.841641  0.341641  1.0
  Ga  Ga8  1  0.341641  0.158359  0.841641  1.0
  As  As9  1  0.140985  0.140985  0.140985  1.0
  As  As10  1  0.359015  0.859015  0.640985  1.0
  As  As11  1  0.640985  0.359015  0.859015  1.0
  As  As12  1  0.859015  0.640985  0.359015  1.0
  As  As13  1  0.859015  0.859015  0.859015  1.0
  As  As14  1  0.640985  0.140985  0.359015  1.0
  As  As15  1  0.359015  0.640985  0.140985  1.0
  As  As16  1  0.140985  0.359015  0.640985  1.0
