# generated using pymatgen
data_ScGa
_symmetry_space_group_name_H-M   'P 1'
_cell_length_a   3.91368477
_cell_length_b   4.02760687
_cell_length_c   5.51543227
_cell_angle_alpha   111.41506619
_cell_angle_beta   90.00000000
_cell_angle_gamma   90.00000000
_symmetry_Int_Tables_number   1
_chemical_formula_structural   ScGa
_chemical_formula_sum   'Sc2 Ga2'
_cell_volume   80.93631301
_cell_formula_units_Z   2
loop_
 _symmetry_equiv_pos_site_id
 _symmetry_equiv_pos_as_xyz
  1  'x, y, z'
loop_
 _atom_site_type_symbol
 _atom_site_label
 _atom_site_symmetry_multiplicity
 _atom_site_fract_x
 _atom_site_fract_y
 _atom_site_fract_z
 _atom_site_occupancy
  Sc  Sc1  1  0.250000  0.861073  0.722146  1.0
  Sc  Sc2  1  0.750000  0.138927  0.277854  1.0
  Ga  Ga3  1  0.250000  0.581585  0.163171  1.0
  Ga  Ga4  1  0.750000  0.418415  0.836829  1.0
