# generated using pymatgen
data_HgRhF6
_symmetry_space_group_name_H-M   'P 1'
_cell_length_a   5.81910102
_cell_length_b   5.81910102
_cell_length_c   5.81910102
_cell_angle_alpha   54.06830537
_cell_angle_beta   54.06830529
_cell_angle_gamma   54.06830538
_symmetry_Int_Tables_number   1
_chemical_formula_structural   HgRhF6
_chemical_formula_sum   'Hg1 Rh1 F6'
_cell_volume   120.03295043
_cell_formula_units_Z   1
loop_
 _symmetry_equiv_pos_site_id
 _symmetry_equiv_pos_as_xyz
  1  'x, y, z'
loop_
 _atom_site_type_symbol
 _atom_site_label
 _atom_site_symmetry_multiplicity
 _atom_site_fract_x
 _atom_site_fract_y
 _atom_site_fract_z
 _atom_site_occupancy
  Hg  Hg1  1  0.500000  0.500000  0.500000  1.0
  Rh  Rh2  1  0.000000  0.000000  0.000000  1.0
  F  F3  1  0.384676  0.059193  0.785325  1.0
  F  F4  1  0.059193  0.785325  0.384676  1.0
  F  F5  1  0.214675  0.615324  0.940807  1.0
  F  F6  1  0.940807  0.214675  0.615324  1.0
  F  F7  1  0.615324  0.940807  0.214675  1.0
  F  F8  1  0.785325  0.384676  0.059193  1.0
