# generated using pymatgen
data_Mg5Pd2
_symmetry_space_group_name_H-M   'P 1'
_cell_length_a   8.05581435
_cell_length_b   8.80358955
_cell_length_c   8.80358955
_cell_angle_alpha   119.95167931
_cell_angle_beta   90.00000000
_cell_angle_gamma   90.00000000
_symmetry_Int_Tables_number   1
_chemical_formula_structural   Mg5Pd2
_chemical_formula_sum   'Mg20 Pd8'
_cell_volume   540.96717089
_cell_formula_units_Z   4
loop_
 _symmetry_equiv_pos_site_id
 _symmetry_equiv_pos_as_xyz
  1  'x, y, z'
loop_
 _atom_site_type_symbol
 _atom_site_label
 _atom_site_symmetry_multiplicity
 _atom_site_fract_x
 _atom_site_fract_y
 _atom_site_fract_z
 _atom_site_occupancy
  Mg  Mg1  1  0.561633  0.807609  0.614952  1.0
  Mg  Mg2  1  0.561620  0.807456  0.192544  1.0
  Mg  Mg3  1  0.561633  0.385048  0.192391  1.0
  Mg  Mg4  1  0.438367  0.192391  0.385048  1.0
  Mg  Mg5  1  0.438380  0.192544  0.807456  1.0
  Mg  Mg6  1  0.438367  0.614952  0.807609  1.0
  Mg  Mg7  1  0.061633  0.192391  0.385048  1.0
  Mg  Mg8  1  0.061620  0.192544  0.807456  1.0
  Mg  Mg9  1  0.061633  0.614952  0.807609  1.0
  Mg  Mg10  1  0.938367  0.807609  0.614952  1.0
  Mg  Mg11  1  0.938380  0.807456  0.192544  1.0
  Mg  Mg12  1  0.938367  0.385048  0.192391  1.0
  Mg  Mg13  1  0.750000  0.463984  0.927917  1.0
  Mg  Mg14  1  0.750000  0.463874  0.536126  1.0
  Mg  Mg15  1  0.750000  0.072083  0.536016  1.0
  Mg  Mg16  1  0.250000  0.536016  0.072083  1.0
  Mg  Mg17  1  0.250000  0.536126  0.463874  1.0
  Mg  Mg18  1  0.250000  0.927917  0.463984  1.0
  Mg  Mg19  1  0.500000  0.000000  0.000000  1.0
  Mg  Mg20  1  0.000000  0.000000  0.000000  1.0
  Pd  Pd21  1  0.750000  0.123867  0.247753  1.0
  Pd  Pd22  1  0.750000  0.123768  0.876232  1.0
  Pd  Pd23  1  0.750000  0.752247  0.876133  1.0
  Pd  Pd24  1  0.250000  0.876133  0.752247  1.0
  Pd  Pd25  1  0.250000  0.876232  0.123768  1.0
  Pd  Pd26  1  0.250000  0.247753  0.123867  1.0
  Pd  Pd27  1  0.750000  0.666587  0.333413  1.0
  Pd  Pd28  1  0.250000  0.333413  0.666587  1.0
