# generated using pymatgen
data_Ce2Mo2C3
_symmetry_space_group_name_H-M   'P 1'
_cell_length_a   3.35628238
_cell_length_b   5.78714556
_cell_length_c   6.30763373
_cell_angle_alpha   113.97520608
_cell_angle_beta   105.42930838
_cell_angle_gamma   90.00000004
_symmetry_Int_Tables_number   1
_chemical_formula_structural   Ce2Mo2C3
_chemical_formula_sum   'Ce2 Mo2 C3'
_cell_volume   107.09415347
_cell_formula_units_Z   1
loop_
 _symmetry_equiv_pos_site_id
 _symmetry_equiv_pos_as_xyz
  1  'x, y, z'
loop_
 _atom_site_type_symbol
 _atom_site_label
 _atom_site_symmetry_multiplicity
 _atom_site_fract_x
 _atom_site_fract_y
 _atom_site_fract_z
 _atom_site_occupancy
  Ce  Ce1  1  0.395844  0.193377  0.791688  1.0
  Ce  Ce2  1  0.604156  0.806623  0.208312  1.0
  Mo  Mo3  1  0.158935  0.324612  0.317870  1.0
  Mo  Mo4  1  0.841065  0.675388  0.682130  1.0
  C  C5  1  0.000000  0.000000  0.000000  1.0
  C  C6  1  0.251507  0.738581  0.503014  1.0
  C  C7  1  0.748493  0.261419  0.496986  1.0
