# generated using pymatgen
data_LuSnAu
_symmetry_space_group_name_H-M   'P 1'
_cell_length_a   4.66696635
_cell_length_b   4.66696635
_cell_length_c   7.38713165
_cell_angle_alpha   90.00000000
_cell_angle_beta   90.00000000
_cell_angle_gamma   119.99999993
_symmetry_Int_Tables_number   1
_chemical_formula_structural   LuSnAu
_chemical_formula_sum   'Lu2 Sn2 Au2'
_cell_volume   139.34000120
_cell_formula_units_Z   2
loop_
 _symmetry_equiv_pos_site_id
 _symmetry_equiv_pos_as_xyz
  1  'x, y, z'
loop_
 _atom_site_type_symbol
 _atom_site_label
 _atom_site_symmetry_multiplicity
 _atom_site_fract_x
 _atom_site_fract_y
 _atom_site_fract_z
 _atom_site_occupancy
  Lu  Lu1  1  0.000000  0.000000  0.477493  1.0
  Lu  Lu2  1  0.000000  0.000000  0.977493  1.0
  Sn  Sn3  1  0.333333  0.666667  0.706784  1.0
  Sn  Sn4  1  0.666667  0.333333  0.206784  1.0
  Au  Au5  1  0.666667  0.333333  0.815724  1.0
  Au  Au6  1  0.333333  0.666667  0.315724  1.0
