# generated using pymatgen
data_Na2CuAs
_symmetry_space_group_name_H-M   'P 1'
_cell_length_a   5.32469776
_cell_length_b   5.71255720
_cell_length_c   5.71255720
_cell_angle_alpha   102.09057380
_cell_angle_beta   90.00000000
_cell_angle_gamma   90.00000000
_symmetry_Int_Tables_number   1
_chemical_formula_structural   Na2CuAs
_chemical_formula_sum   'Na4 Cu2 As2'
_cell_volume   169.90806091
_cell_formula_units_Z   2
loop_
 _symmetry_equiv_pos_site_id
 _symmetry_equiv_pos_as_xyz
  1  'x, y, z'
loop_
 _atom_site_type_symbol
 _atom_site_label
 _atom_site_symmetry_multiplicity
 _atom_site_fract_x
 _atom_site_fract_y
 _atom_site_fract_z
 _atom_site_occupancy
  Na  Na1  1  0.250000  0.028920  0.678364  1.0
  Na  Na2  1  0.750000  0.971080  0.321636  1.0
  Na  Na3  1  0.750000  0.321636  0.971080  1.0
  Na  Na4  1  0.250000  0.678364  0.028920  1.0
  Cu  Cu5  1  0.500000  0.500000  0.500000  1.0
  Cu  Cu6  1  0.000000  0.500000  0.500000  1.0
  As  As7  1  0.250000  0.229935  0.229935  1.0
  As  As8  1  0.750000  0.770065  0.770065  1.0
