# generated using pymatgen
data_K2CuAs
_symmetry_space_group_name_H-M   'P 1'
_cell_length_a   5.93140376
_cell_length_b   6.32932009
_cell_length_c   6.32932008
_cell_angle_alpha   106.05906270
_cell_angle_beta   90.00000000
_cell_angle_gamma   90.00000000
_symmetry_Int_Tables_number   1
_chemical_formula_structural   K2CuAs
_chemical_formula_sum   'K4 Cu2 As2'
_cell_volume   228.34138011
_cell_formula_units_Z   2
loop_
 _symmetry_equiv_pos_site_id
 _symmetry_equiv_pos_as_xyz
  1  'x, y, z'
loop_
 _atom_site_type_symbol
 _atom_site_label
 _atom_site_symmetry_multiplicity
 _atom_site_fract_x
 _atom_site_fract_y
 _atom_site_fract_z
 _atom_site_occupancy
  K  K1  1  0.250000  0.021732  0.682564  1.0
  K  K2  1  0.750000  0.978268  0.317436  1.0
  K  K3  1  0.750000  0.317436  0.978268  1.0
  K  K4  1  0.250000  0.682564  0.021732  1.0
  Cu  Cu5  1  0.500000  0.500000  0.500000  1.0
  Cu  Cu6  1  0.000000  0.500000  0.500000  1.0
  As  As7  1  0.250000  0.259522  0.259522  1.0
  As  As8  1  0.750000  0.740478  0.740478  1.0
