# generated using pymatgen
data_Mg3(TiAl9)2
_symmetry_space_group_name_H-M   'P 1'
_cell_length_a   10.44024708
_cell_length_b   10.44024739
_cell_length_c   10.44024777
_cell_angle_alpha   59.99999878
_cell_angle_beta   59.99999778
_cell_angle_gamma   59.99999767
_symmetry_Int_Tables_number   1
_chemical_formula_structural   Mg3(TiAl9)2
_chemical_formula_sum   'Mg6 Ti4 Al36'
_cell_volume   804.66915746
_cell_formula_units_Z   2
loop_
 _symmetry_equiv_pos_site_id
 _symmetry_equiv_pos_as_xyz
  1  'x, y, z'
loop_
 _atom_site_type_symbol
 _atom_site_label
 _atom_site_symmetry_multiplicity
 _atom_site_fract_x
 _atom_site_fract_y
 _atom_site_fract_z
 _atom_site_occupancy
  Mg  Mg1  1  0.375000  0.375000  0.375000  1.0
  Mg  Mg2  1  0.000000  0.500000  0.500000  1.0
  Mg  Mg3  1  0.500000  0.500000  0.500000  1.0
  Mg  Mg4  1  0.625000  0.625000  0.625000  1.0
  Mg  Mg5  1  0.500000  0.000000  0.500000  1.0
  Mg  Mg6  1  0.500000  0.500000  0.000000  1.0
  Ti  Ti7  1  0.000000  0.000000  0.000000  1.0
  Ti  Ti8  1  0.000000  0.000000  0.500000  1.0
  Ti  Ti9  1  0.000000  0.500000  0.000000  1.0
  Ti  Ti10  1  0.500000  0.000000  0.000000  1.0
  Al  Al11  1  0.175227  0.706618  0.175227  1.0
  Al  Al12  1  0.736210  0.013790  0.013790  1.0
  Al  Al13  1  0.736210  0.736210  0.013790  1.0
  Al  Al14  1  0.442928  0.706618  0.175227  1.0
  Al  Al15  1  0.263790  0.986210  0.263790  1.0
  Al  Al16  1  0.293382  0.824773  0.557072  1.0
  Al  Al17  1  0.706618  0.175227  0.175227  1.0
  Al  Al18  1  0.175227  0.442928  0.175227  1.0
  Al  Al19  1  0.824773  0.824773  0.293382  1.0
  Al  Al20  1  0.986210  0.986210  0.263790  1.0
  Al  Al21  1  0.986210  0.263790  0.986210  1.0
  Al  Al22  1  0.293382  0.557072  0.824773  1.0
  Al  Al23  1  0.824773  0.824773  0.557072  1.0
  Al  Al24  1  0.824773  0.557072  0.824773  1.0
  Al  Al25  1  0.175227  0.175227  0.442928  1.0
  Al  Al26  1  0.986210  0.263790  0.263790  1.0
  Al  Al27  1  0.706618  0.442928  0.175227  1.0
  Al  Al28  1  0.557072  0.824773  0.824773  1.0
  Al  Al29  1  0.263790  0.263790  0.986210  1.0
  Al  Al30  1  0.175227  0.175227  0.706618  1.0
  Al  Al31  1  0.293382  0.824773  0.824773  1.0
  Al  Al32  1  0.442928  0.175227  0.175227  1.0
  Al  Al33  1  0.442928  0.175227  0.706618  1.0
  Al  Al34  1  0.013790  0.736210  0.013790  1.0
  Al  Al35  1  0.557072  0.824773  0.293382  1.0
  Al  Al36  1  0.824773  0.293382  0.557072  1.0
  Al  Al37  1  0.706618  0.175227  0.442928  1.0
  Al  Al38  1  0.013790  0.013790  0.736210  1.0
  Al  Al39  1  0.736210  0.013790  0.736210  1.0
  Al  Al40  1  0.175227  0.706618  0.442928  1.0
  Al  Al41  1  0.013790  0.736210  0.736210  1.0
  Al  Al42  1  0.175227  0.442928  0.706618  1.0
  Al  Al43  1  0.557072  0.293382  0.824773  1.0
  Al  Al44  1  0.263790  0.986210  0.986210  1.0
  Al  Al45  1  0.824773  0.557072  0.293382  1.0
  Al  Al46  1  0.824773  0.293382  0.824773  1.0
