# generated using pymatgen
data_MgFe2O5
_symmetry_space_group_name_H-M   'P 1'
_cell_length_a   3.31659606
_cell_length_b   5.03431275
_cell_length_c   11.61257334
_cell_angle_alpha   89.94263443
_cell_angle_beta   90.00106502
_cell_angle_gamma   90.01720969
_symmetry_Int_Tables_number   1
_chemical_formula_structural   MgFe2O5
_chemical_formula_sum   'Mg2 Fe4 O10'
_cell_volume   193.89249760
_cell_formula_units_Z   2
loop_
 _symmetry_equiv_pos_site_id
 _symmetry_equiv_pos_as_xyz
  1  'x, y, z'
loop_
 _atom_site_type_symbol
 _atom_site_label
 _atom_site_symmetry_multiplicity
 _atom_site_fract_x
 _atom_site_fract_y
 _atom_site_fract_z
 _atom_site_occupancy
  Mg  Mg1  1  0.750217  0.870271  0.250224  1.0
  Mg  Mg2  1  0.249770  0.129722  0.749518  1.0
  Fe  Fe3  1  0.249984  0.419502  0.101794  1.0
  Fe  Fe4  1  0.750030  0.580845  0.898262  1.0
  Fe  Fe5  1  0.750042  0.580883  0.601663  1.0
  Fe  Fe6  1  0.249969  0.418774  0.398363  1.0
  O  O7  1  0.750039  0.417172  0.750083  1.0
  O  O8  1  0.249986  0.582838  0.249957  1.0
  O  O9  1  0.750077  0.615534  0.069423  1.0
  O  O10  1  0.249936  0.384890  0.930757  1.0
  O  O11  1  0.750069  0.615017  0.430475  1.0
  O  O12  1  0.249942  0.384579  0.569662  1.0
  O  O13  1  0.250312  0.075605  0.342452  1.0
  O  O14  1  0.749632  0.924118  0.657468  1.0
  O  O15  1  0.749547  0.924066  0.842212  1.0
  O  O16  1  0.250437  0.076183  0.157686  1.0
