# generated using pymatgen
data_SiPt3
_symmetry_space_group_name_H-M   'P 1'
_cell_length_a   5.44610063
_cell_length_b   5.54219209
_cell_length_c   5.54219209
_cell_angle_alpha   91.05126374
_cell_angle_beta   118.68328517
_cell_angle_gamma   118.68328507
_symmetry_Int_Tables_number   1
_chemical_formula_structural   SiPt3
_chemical_formula_sum   'Si2 Pt6'
_cell_volume   121.83729126
_cell_formula_units_Z   2
loop_
 _symmetry_equiv_pos_site_id
 _symmetry_equiv_pos_as_xyz
  1  'x, y, z'
loop_
 _atom_site_type_symbol
 _atom_site_label
 _atom_site_symmetry_multiplicity
 _atom_site_fract_x
 _atom_site_fract_y
 _atom_site_fract_z
 _atom_site_occupancy
  Si  Si1  1  0.073590  0.285386  0.285386  1.0
  Si  Si2  1  0.926410  0.714614  0.714614  1.0
  Pt  Pt3  1  0.500000  0.725884  0.274116  1.0
  Pt  Pt4  1  0.500000  0.274116  0.725884  1.0
  Pt  Pt5  1  0.000000  0.815530  0.184470  1.0
  Pt  Pt6  1  0.000000  0.184470  0.815530  1.0
  Pt  Pt7  1  0.637021  0.283367  0.283367  1.0
  Pt  Pt8  1  0.362979  0.716633  0.716633  1.0
