# generated using pymatgen
data_LaAlGe
_symmetry_space_group_name_H-M   'P 1'
_cell_length_a   4.37075965
_cell_length_b   4.37075965
_cell_length_c   8.04203138
_cell_angle_alpha   105.76811618
_cell_angle_beta   105.76811611
_cell_angle_gamma   89.99999998
_symmetry_Int_Tables_number   1
_chemical_formula_structural   LaAlGe
_chemical_formula_sum   'La2 Al2 Ge2'
_cell_volume   141.83332971
_cell_formula_units_Z   2
loop_
 _symmetry_equiv_pos_site_id
 _symmetry_equiv_pos_as_xyz
  1  'x, y, z'
loop_
 _atom_site_type_symbol
 _atom_site_label
 _atom_site_symmetry_multiplicity
 _atom_site_fract_x
 _atom_site_fract_y
 _atom_site_fract_z
 _atom_site_occupancy
  La  La1  1  0.999446  0.999446  0.998893  1.0
  La  La2  1  0.749446  0.249446  0.498893  1.0
  Al  Al3  1  0.582806  0.582806  0.165612  1.0
  Al  Al4  1  0.332806  0.832806  0.665612  1.0
  Ge  Ge5  1  0.416048  0.416048  0.832095  1.0
  Ge  Ge6  1  0.166048  0.666048  0.332095  1.0
