# generated using pymatgen
data_MoP4
_symmetry_space_group_name_H-M   'P 1'
_cell_length_a   5.33998753
_cell_length_b   5.86178933
_cell_length_c   6.21235350
_cell_angle_alpha   81.25755373
_cell_angle_beta   64.54590552
_cell_angle_gamma   69.28946738
_symmetry_Int_Tables_number   1
_chemical_formula_structural   MoP4
_chemical_formula_sum   'Mo2 P8'
_cell_volume   164.23597243
_cell_formula_units_Z   2
loop_
 _symmetry_equiv_pos_site_id
 _symmetry_equiv_pos_as_xyz
  1  'x, y, z'
loop_
 _atom_site_type_symbol
 _atom_site_label
 _atom_site_symmetry_multiplicity
 _atom_site_fract_x
 _atom_site_fract_y
 _atom_site_fract_z
 _atom_site_occupancy
  Mo  Mo1  1  0.059097  0.250000  0.881805  1.0
  Mo  Mo2  1  0.940903  0.750000  0.118195  1.0
  P  P3  1  0.499808  0.310758  0.555286  1.0
  P  P4  1  0.944905  0.189242  0.555286  1.0
  P  P5  1  0.184574  0.316699  0.188907  1.0
  P  P6  1  0.626519  0.183301  0.188907  1.0
  P  P7  1  0.815426  0.683301  0.811093  1.0
  P  P8  1  0.373481  0.816699  0.811093  1.0
  P  P9  1  0.055095  0.810758  0.444714  1.0
  P  P10  1  0.500192  0.689242  0.444714  1.0
