# generated using pymatgen
data_Te2Rh3
_symmetry_space_group_name_H-M   'P 1'
_cell_length_a   3.75467908
_cell_length_b   6.56673207
_cell_length_c   7.83282605
_cell_angle_alpha   90.00000000
_cell_angle_beta   90.00000000
_cell_angle_gamma   106.61184160
_symmetry_Int_Tables_number   1
_chemical_formula_structural   Te2Rh3
_chemical_formula_sum   'Te4 Rh6'
_cell_volume   185.06553725
_cell_formula_units_Z   2
loop_
 _symmetry_equiv_pos_site_id
 _symmetry_equiv_pos_as_xyz
  1  'x, y, z'
loop_
 _atom_site_type_symbol
 _atom_site_label
 _atom_site_symmetry_multiplicity
 _atom_site_fract_x
 _atom_site_fract_y
 _atom_site_fract_z
 _atom_site_occupancy
  Te  Te1  1  0.000000  0.000000  0.000000  1.0
  Te  Te2  1  0.000000  0.000000  0.500000  1.0
  Te  Te3  1  0.252981  0.505963  0.750000  1.0
  Te  Te4  1  0.747019  0.494037  0.250000  1.0
  Rh  Rh5  1  0.463946  0.927891  0.750000  1.0
  Rh  Rh6  1  0.536054  0.072109  0.250000  1.0
  Rh  Rh7  1  0.338743  0.677485  0.059834  1.0
  Rh  Rh8  1  0.661257  0.322515  0.940166  1.0
  Rh  Rh9  1  0.661257  0.322515  0.559834  1.0
  Rh  Rh10  1  0.338743  0.677485  0.440166  1.0
