# generated using pymatgen
data_As
_symmetry_space_group_name_H-M   'P 1'
_cell_length_a   3.70651917
_cell_length_b   4.68642671
_cell_length_c   6.01330732
_cell_angle_alpha   90.00000000
_cell_angle_beta   107.95036960
_cell_angle_gamma   90.00000000
_symmetry_Int_Tables_number   1
_chemical_formula_structural   As
_chemical_formula_sum   As4
_cell_volume   99.36875706
_cell_formula_units_Z   4
loop_
 _symmetry_equiv_pos_site_id
 _symmetry_equiv_pos_as_xyz
  1  'x, y, z'
loop_
 _atom_site_type_symbol
 _atom_site_label
 _atom_site_symmetry_multiplicity
 _atom_site_fract_x
 _atom_site_fract_y
 _atom_site_fract_z
 _atom_site_occupancy
  As  As1  1  0.894072  0.931370  0.788145  1.0
  As  As2  1  0.105928  0.068630  0.211855  1.0
  As  As3  1  0.605928  0.431370  0.211855  1.0
  As  As4  1  0.394072  0.568630  0.788145  1.0
