# generated using pymatgen
data_MoN2
_symmetry_space_group_name_H-M   'P 1'
_cell_length_a   3.73800778
_cell_length_b   5.68095526
_cell_length_c   5.72497259
_cell_angle_alpha   43.05148905
_cell_angle_beta   70.94563985
_cell_angle_gamma   70.79223681
_symmetry_Int_Tables_number   1
_chemical_formula_structural   MoN2
_chemical_formula_sum   'Mo2 N4'
_cell_volume   77.67059855
_cell_formula_units_Z   2
loop_
 _symmetry_equiv_pos_site_id
 _symmetry_equiv_pos_as_xyz
  1  'x, y, z'
loop_
 _atom_site_type_symbol
 _atom_site_label
 _atom_site_symmetry_multiplicity
 _atom_site_fract_x
 _atom_site_fract_y
 _atom_site_fract_z
 _atom_site_occupancy
  Mo  Mo1  1  0.383154  0.925849  0.307843  1.0
  Mo  Mo2  1  0.616846  0.074151  0.692157  1.0
  N  N3  1  0.166595  0.110280  0.556530  1.0
  N  N4  1  0.833405  0.889720  0.443470  1.0
  N  N5  1  0.415005  0.325077  0.844912  1.0
  N  N6  1  0.584995  0.674923  0.155088  1.0
