# generated using pymatgen
data_Nb5Se4
_symmetry_space_group_name_H-M   'P 1'
_cell_length_a   3.45225146
_cell_length_b   7.29205719
_cell_length_c   7.29205719
_cell_angle_alpha   86.78785694
_cell_angle_beta   76.30737204
_cell_angle_gamma   76.30737214
_symmetry_Int_Tables_number   1
_chemical_formula_structural   Nb5Se4
_chemical_formula_sum   'Nb5 Se4'
_cell_volume   173.28433972
_cell_formula_units_Z   1
loop_
 _symmetry_equiv_pos_site_id
 _symmetry_equiv_pos_as_xyz
  1  'x, y, z'
loop_
 _atom_site_type_symbol
 _atom_site_label
 _atom_site_symmetry_multiplicity
 _atom_site_fract_x
 _atom_site_fract_y
 _atom_site_fract_z
 _atom_site_occupancy
  Nb  Nb1  1  0.696660  0.928081  0.678599  1.0
  Nb  Nb2  1  0.375259  0.321401  0.928081  1.0
  Nb  Nb3  1  0.624741  0.678599  0.071919  1.0
  Nb  Nb4  1  0.303340  0.071919  0.321401  1.0
  Nb  Nb5  1  0.000000  0.000000  0.000000  1.0
  Se  Se6  1  0.941174  0.777790  0.339862  1.0
  Se  Se7  1  0.281036  0.660138  0.777790  1.0
  Se  Se8  1  0.718964  0.339862  0.222210  1.0
  Se  Se9  1  0.058826  0.222210  0.660138  1.0
