# generated using pymatgen
data_As2O3
_symmetry_space_group_name_H-M   'P 1'
_cell_length_a   4.68540756
_cell_length_b   8.30976975
_cell_length_c   9.90223198
_cell_angle_alpha   100.59465003
_cell_angle_beta   90.00000000
_cell_angle_gamma   90.00000000
_symmetry_Int_Tables_number   1
_chemical_formula_structural   As2O3
_chemical_formula_sum   'As8 O12'
_cell_volume   378.96753044
_cell_formula_units_Z   4
loop_
 _symmetry_equiv_pos_site_id
 _symmetry_equiv_pos_as_xyz
  1  'x, y, z'
loop_
 _atom_site_type_symbol
 _atom_site_label
 _atom_site_symmetry_multiplicity
 _atom_site_fract_x
 _atom_site_fract_y
 _atom_site_fract_z
 _atom_site_occupancy
  As  As1  1  0.180467  0.315675  0.862777  1.0
  As  As2  1  0.680467  0.184325  0.637223  1.0
  As  As3  1  0.819533  0.684325  0.137223  1.0
  As  As4  1  0.319533  0.815675  0.362777  1.0
  As  As5  1  0.638685  0.881093  0.797531  1.0
  As  As6  1  0.138685  0.618907  0.702469  1.0
  As  As7  1  0.361315  0.118907  0.202469  1.0
  As  As8  1  0.861315  0.381093  0.297531  1.0
  O  O9  1  0.124872  0.531669  0.860219  1.0
  O  O10  1  0.624872  0.968331  0.639781  1.0
  O  O11  1  0.875128  0.468331  0.139781  1.0
  O  O12  1  0.375128  0.031669  0.360219  1.0
  O  O13  1  0.327825  0.266195  0.686765  1.0
  O  O14  1  0.827825  0.233805  0.813235  1.0
  O  O15  1  0.672175  0.733805  0.313235  1.0
  O  O16  1  0.172175  0.766195  0.186765  1.0
  O  O17  1  0.486644  0.320478  0.288323  1.0
  O  O18  1  0.986644  0.179522  0.211677  1.0
  O  O19  1  0.513356  0.679522  0.711677  1.0
  O  O20  1  0.013356  0.820478  0.788323  1.0
