# generated using pymatgen
data_Li2US3
_symmetry_space_group_name_H-M   'P 1'
_cell_length_a   6.53474668
_cell_length_b   6.66056242
_cell_length_c   6.66056243
_cell_angle_alpha   119.92443933
_cell_angle_beta   99.81220896
_cell_angle_gamma   99.81220897
_symmetry_Int_Tables_number   1
_chemical_formula_structural   Li2US3
_chemical_formula_sum   'Li4 U2 S6'
_cell_volume   236.24384513
_cell_formula_units_Z   2
loop_
 _symmetry_equiv_pos_site_id
 _symmetry_equiv_pos_as_xyz
  1  'x, y, z'
loop_
 _atom_site_type_symbol
 _atom_site_label
 _atom_site_symmetry_multiplicity
 _atom_site_fract_x
 _atom_site_fract_y
 _atom_site_fract_z
 _atom_site_occupancy
  Li  Li1  1  0.000000  0.000000  0.000000  1.0
  Li  Li2  1  0.500000  0.500000  0.500000  1.0
  Li  Li3  1  0.500000  0.835102  0.164898  1.0
  Li  Li4  1  0.500000  0.164898  0.835102  1.0
  U  U5  1  0.000000  0.666639  0.333361  1.0
  U  U6  1  0.000000  0.333361  0.666639  1.0
  S  S7  1  0.251284  0.744025  0.744025  1.0
  S  S8  1  0.751831  0.917222  0.578515  1.0
  S  S9  1  0.751831  0.578515  0.917222  1.0
  S  S10  1  0.748716  0.255975  0.255975  1.0
  S  S11  1  0.248169  0.082778  0.421485  1.0
  S  S12  1  0.248169  0.421485  0.082778  1.0
