# generated using pymatgen
data_Be12Cr
_symmetry_space_group_name_H-M   'P 1'
_cell_length_a   4.12257447
_cell_length_b   5.48865744
_cell_length_c   5.48865744
_cell_angle_alpha   81.89192238
_cell_angle_beta   67.94144266
_cell_angle_gamma   67.94144259
_symmetry_Int_Tables_number   1
_chemical_formula_structural   Be12Cr
_chemical_formula_sum   'Be12 Cr1'
_cell_volume   106.67761443
_cell_formula_units_Z   1
loop_
 _symmetry_equiv_pos_site_id
 _symmetry_equiv_pos_as_xyz
  1  'x, y, z'
loop_
 _atom_site_type_symbol
 _atom_site_label
 _atom_site_symmetry_multiplicity
 _atom_site_fract_x
 _atom_site_fract_y
 _atom_site_fract_z
 _atom_site_occupancy
  Be  Be1  1  0.711286  0.788714  0.788714  1.0
  Be  Be2  1  0.500000  0.000000  0.500000  1.0
  Be  Be3  1  0.000000  0.500000  0.000000  1.0
  Be  Be4  1  0.500000  0.500000  0.000000  1.0
  Be  Be5  1  0.000000  0.000000  0.500000  1.0
  Be  Be6  1  0.348152  0.651848  0.651848  1.0
  Be  Be7  1  0.000000  0.348152  0.651848  1.0
  Be  Be8  1  0.000000  0.651848  0.348152  1.0
  Be  Be9  1  0.651848  0.348152  0.348152  1.0
  Be  Be10  1  0.288714  0.211286  0.211286  1.0
  Be  Be11  1  0.500000  0.788714  0.211286  1.0
  Be  Be12  1  0.500000  0.211286  0.788714  1.0
  Cr  Cr13  1  0.000000  0.000000  0.000000  1.0
