# generated using pymatgen
data_Cu2SiSe3
_symmetry_space_group_name_H-M   'P 1'
_cell_length_a   6.75522642
_cell_length_b   6.73595237
_cell_length_c   6.80548238
_cell_angle_alpha   60.33739620
_cell_angle_beta   80.92990552
_cell_angle_gamma   71.42536037
_symmetry_Int_Tables_number   1
_chemical_formula_structural   Cu2SiSe3
_chemical_formula_sum   'Cu4 Si2 Se6'
_cell_volume   255.07144729
_cell_formula_units_Z   2
loop_
 _symmetry_equiv_pos_site_id
 _symmetry_equiv_pos_as_xyz
  1  'x, y, z'
loop_
 _atom_site_type_symbol
 _atom_site_label
 _atom_site_symmetry_multiplicity
 _atom_site_fract_x
 _atom_site_fract_y
 _atom_site_fract_z
 _atom_site_occupancy
  Cu  Cu1  1  0.502784  0.232288  0.510050  1.0
  Cu  Cu2  1  0.002784  0.742338  0.489950  1.0
  Cu  Cu3  1  0.500256  0.585150  0.826738  1.0
  Cu  Cu4  1  0.000256  0.411889  0.173262  1.0
  Si  Si5  1  0.523981  0.885923  0.169365  1.0
  Si  Si6  1  0.023981  0.055288  0.830635  1.0
  Se  Se7  1  0.123157  0.697693  0.830029  1.0
  Se  Se8  1  0.623157  0.527722  0.169971  1.0
  Se  Se9  1  0.627299  0.866575  0.484407  1.0
  Se  Se10  1  0.127299  0.350982  0.515593  1.0
  Se  Se11  1  0.144023  0.030983  0.157986  1.0
  Se  Se12  1  0.644023  0.188969  0.842014  1.0
