# generated using pymatgen
data_Al21Pt8
_symmetry_space_group_name_H-M   'P 1'
_cell_length_a   10.68179036
_cell_length_b   10.68179036
_cell_length_c   10.68179036
_cell_angle_alpha   104.70962378
_cell_angle_beta   104.70962377
_cell_angle_gamma   119.48259733
_symmetry_Int_Tables_number   1
_chemical_formula_structural   Al21Pt8
_chemical_formula_sum   'Al42 Pt16'
_cell_volume   916.42327588
_cell_formula_units_Z   2
loop_
 _symmetry_equiv_pos_site_id
 _symmetry_equiv_pos_as_xyz
  1  'x, y, z'
loop_
 _atom_site_type_symbol
 _atom_site_label
 _atom_site_symmetry_multiplicity
 _atom_site_fract_x
 _atom_site_fract_y
 _atom_site_fract_z
 _atom_site_occupancy
  Al  Al1  1  0.125000  0.375000  0.750000  1.0
  Al  Al2  1  0.875000  0.625000  0.250000  1.0
  Al  Al3  1  0.615039  0.722248  0.786667  1.0
  Al  Al4  1  0.222248  0.935582  0.107209  1.0
  Al  Al5  1  0.328372  0.115039  0.392791  1.0
  Al  Al6  1  0.435582  0.828372  0.713333  1.0
  Al  Al7  1  0.384961  0.277752  0.213333  1.0
  Al  Al8  1  0.777752  0.064418  0.892791  1.0
  Al  Al9  1  0.671628  0.884961  0.607209  1.0
  Al  Al10  1  0.564418  0.171628  0.286667  1.0
  Al  Al11  1  0.661820  0.075097  0.090469  1.0
  Al  Al12  1  0.575097  0.984628  0.413277  1.0
  Al  Al13  1  0.071351  0.161820  0.086723  1.0
  Al  Al14  1  0.484628  0.571351  0.409531  1.0
  Al  Al15  1  0.338180  0.924903  0.909531  1.0
  Al  Al16  1  0.424903  0.015372  0.586723  1.0
  Al  Al17  1  0.928649  0.838180  0.913277  1.0
  Al  Al18  1  0.515372  0.428649  0.590469  1.0
  Al  Al19  1  0.941293  0.181829  0.322025  1.0
  Al  Al20  1  0.681829  0.859804  0.240536  1.0
  Al  Al21  1  0.119268  0.441293  0.259464  1.0
  Al  Al22  1  0.359804  0.619268  0.177975  1.0
  Al  Al23  1  0.058707  0.818171  0.677975  1.0
  Al  Al24  1  0.318171  0.140196  0.759464  1.0
  Al  Al25  1  0.880732  0.558707  0.740536  1.0
  Al  Al26  1  0.640196  0.380732  0.822025  1.0
  Al  Al27  1  0.155178  0.177213  0.541373  1.0
  Al  Al28  1  0.677213  0.635840  0.022035  1.0
  Al  Al29  1  0.113805  0.655178  0.477965  1.0
  Al  Al30  1  0.135840  0.613805  0.958627  1.0
  Al  Al31  1  0.844822  0.822787  0.458627  1.0
  Al  Al32  1  0.322787  0.364160  0.977965  1.0
  Al  Al33  1  0.886195  0.344822  0.522035  1.0
  Al  Al34  1  0.864160  0.386195  0.041373  1.0
  Al  Al35  1  0.282494  0.510110  0.587811  1.0
  Al  Al36  1  0.010110  0.922298  0.227616  1.0
  Al  Al37  1  0.194682  0.782494  0.272384  1.0
  Al  Al38  1  0.422298  0.694682  0.912189  1.0
  Al  Al39  1  0.717506  0.489890  0.412189  1.0
  Al  Al40  1  0.989890  0.077702  0.772384  1.0
  Al  Al41  1  0.805318  0.217506  0.727616  1.0
  Al  Al42  1  0.577702  0.305318  0.087811  1.0
  Pt  Pt43  1  0.850952  0.377534  0.287619  1.0
  Pt  Pt44  1  0.877534  0.089915  0.526582  1.0
  Pt  Pt45  1  0.063333  0.350952  0.973418  1.0
  Pt  Pt46  1  0.589915  0.563333  0.212381  1.0
  Pt  Pt47  1  0.149048  0.622466  0.712381  1.0
  Pt  Pt48  1  0.122466  0.910085  0.473418  1.0
  Pt  Pt49  1  0.936667  0.649048  0.026582  1.0
  Pt  Pt50  1  0.410085  0.436667  0.787619  1.0
  Pt  Pt51  1  0.201878  0.068288  0.936778  1.0
  Pt  Pt52  1  0.568288  0.131511  0.866410  1.0
  Pt  Pt53  1  0.765100  0.701878  0.633590  1.0
  Pt  Pt54  1  0.631511  0.265100  0.563222  1.0
  Pt  Pt55  1  0.798122  0.931712  0.063222  1.0
  Pt  Pt56  1  0.431712  0.868489  0.133590  1.0
  Pt  Pt57  1  0.234900  0.298122  0.366410  1.0
  Pt  Pt58  1  0.368489  0.734900  0.436778  1.0
