# generated using pymatgen
data_Sc2SO2
_symmetry_space_group_name_H-M   'P 1'
_cell_length_a   3.54934496
_cell_length_b   3.54934496
_cell_length_c   12.61455542
_cell_angle_alpha   90.00000000
_cell_angle_beta   90.00000000
_cell_angle_gamma   120.00000002
_symmetry_Int_Tables_number   1
_chemical_formula_structural   Sc2SO2
_chemical_formula_sum   'Sc4 S2 O4'
_cell_volume   137.62552905
_cell_formula_units_Z   2
loop_
 _symmetry_equiv_pos_site_id
 _symmetry_equiv_pos_as_xyz
  1  'x, y, z'
loop_
 _atom_site_type_symbol
 _atom_site_label
 _atom_site_symmetry_multiplicity
 _atom_site_fract_x
 _atom_site_fract_y
 _atom_site_fract_z
 _atom_site_occupancy
  Sc  Sc1  1  0.333333  0.666667  0.606992  1.0
  Sc  Sc2  1  0.666667  0.333333  0.106992  1.0
  Sc  Sc3  1  0.666667  0.333333  0.393008  1.0
  Sc  Sc4  1  0.333333  0.666667  0.893008  1.0
  S  S5  1  0.000000  0.000000  0.250000  1.0
  S  S6  1  0.000000  0.000000  0.750000  1.0
  O  O7  1  0.666667  0.333333  0.565660  1.0
  O  O8  1  0.333333  0.666667  0.065660  1.0
  O  O9  1  0.333333  0.666667  0.434340  1.0
  O  O10  1  0.666667  0.333333  0.934340  1.0
