# generated using pymatgen
data_Ag2Te
_symmetry_space_group_name_H-M   'P 1'
_cell_length_a   4.53278284
_cell_length_b   8.39742930
_cell_length_c   8.04571044
_cell_angle_alpha   112.33016818
_cell_angle_beta   90.00000000
_cell_angle_gamma   90.00000000
_symmetry_Int_Tables_number   1
_chemical_formula_structural   Ag2Te
_chemical_formula_sum   'Ag8 Te4'
_cell_volume   283.28396899
_cell_formula_units_Z   4
loop_
 _symmetry_equiv_pos_site_id
 _symmetry_equiv_pos_as_xyz
  1  'x, y, z'
loop_
 _atom_site_type_symbol
 _atom_site_label
 _atom_site_symmetry_multiplicity
 _atom_site_fract_x
 _atom_site_fract_y
 _atom_site_fract_z
 _atom_site_occupancy
  Ag  Ag1  1  0.126477  0.342930  0.374745  1.0
  Ag  Ag2  1  0.626477  0.157070  0.125255  1.0
  Ag  Ag3  1  0.873523  0.657070  0.625255  1.0
  Ag  Ag4  1  0.373523  0.842930  0.874745  1.0
  Ag  Ag5  1  0.857178  0.655456  0.990373  1.0
  Ag  Ag6  1  0.357178  0.844544  0.509627  1.0
  Ag  Ag7  1  0.142822  0.344544  0.009627  1.0
  Ag  Ag8  1  0.642822  0.155456  0.490373  1.0
  Te  Te9  1  0.145651  0.970054  0.242750  1.0
  Te  Te10  1  0.645651  0.529946  0.257250  1.0
  Te  Te11  1  0.854349  0.029946  0.757250  1.0
  Te  Te12  1  0.354349  0.470054  0.742750  1.0
