# generated using pymatgen
data_Nb3Au2
_symmetry_space_group_name_H-M   'P 1'
_cell_length_a   3.42728762
_cell_length_b   3.42728762
_cell_length_c   8.08258612
_cell_angle_alpha   102.24056636
_cell_angle_beta   102.24056637
_cell_angle_gamma   89.99999993
_symmetry_Int_Tables_number   1
_chemical_formula_structural   Nb3Au2
_chemical_formula_sum   'Nb3 Au2'
_cell_volume   90.57231582
_cell_formula_units_Z   1
loop_
 _symmetry_equiv_pos_site_id
 _symmetry_equiv_pos_as_xyz
  1  'x, y, z'
loop_
 _atom_site_type_symbol
 _atom_site_label
 _atom_site_symmetry_multiplicity
 _atom_site_fract_x
 _atom_site_fract_y
 _atom_site_fract_z
 _atom_site_occupancy
  Nb  Nb1  1  0.000000  0.000000  0.000000  1.0
  Nb  Nb2  1  0.400887  0.400887  0.801774  1.0
  Nb  Nb3  1  0.599113  0.599113  0.198226  1.0
  Au  Au4  1  0.199168  0.199168  0.398335  1.0
  Au  Au5  1  0.800832  0.800832  0.601665  1.0
