# generated using pymatgen
data_Hf3Sb
_symmetry_space_group_name_H-M   'P 1'
_cell_length_a   5.69511429
_cell_length_b   8.44360658
_cell_length_c   8.44360658
_cell_angle_alpha   83.46941386
_cell_angle_beta   70.29094043
_cell_angle_gamma   70.29094043
_symmetry_Int_Tables_number   1
_chemical_formula_structural   Hf3Sb
_chemical_formula_sum   'Hf12 Sb4'
_cell_volume   359.85099684
_cell_formula_units_Z   4
loop_
 _symmetry_equiv_pos_site_id
 _symmetry_equiv_pos_as_xyz
  1  'x, y, z'
loop_
 _atom_site_type_symbol
 _atom_site_label
 _atom_site_symmetry_multiplicity
 _atom_site_fract_x
 _atom_site_fract_y
 _atom_site_fract_z
 _atom_site_occupancy
  Hf  Hf1  1  0.691303  0.187809  0.022268  1.0
  Hf  Hf2  1  0.901381  0.812191  0.977732  1.0
  Hf  Hf3  1  0.120888  0.977732  0.187809  1.0
  Hf  Hf4  1  0.286428  0.022268  0.812191  1.0
  Hf  Hf5  1  0.998155  0.376840  0.669849  1.0
  Hf  Hf6  1  0.044844  0.623160  0.330151  1.0
  Hf  Hf7  1  0.625005  0.330151  0.376840  1.0
  Hf  Hf8  1  0.331996  0.669849  0.623160  1.0
  Hf  Hf9  1  0.020718  0.401942  0.028775  1.0
  Hf  Hf10  1  0.451436  0.598058  0.971225  1.0
  Hf  Hf11  1  0.577339  0.971225  0.401942  1.0
  Hf  Hf12  1  0.950507  0.028775  0.598058  1.0
  Sb  Sb13  1  0.490922  0.322568  0.741976  1.0
  Sb  Sb14  1  0.555465  0.677432  0.258024  1.0
  Sb  Sb15  1  0.186510  0.258024  0.322568  1.0
  Sb  Sb16  1  0.767103  0.741976  0.677432  1.0
