# generated using pymatgen
data_C3N4
_symmetry_space_group_name_H-M   'P 1'
_cell_length_a   6.45052656
_cell_length_b   6.45052656
_cell_length_c   2.42313990
_cell_angle_alpha   90.00000000
_cell_angle_beta   90.00000000
_cell_angle_gamma   119.99999999
_symmetry_Int_Tables_number   1
_chemical_formula_structural   C3N4
_chemical_formula_sum   'C6 N8'
_cell_volume   87.31713072
_cell_formula_units_Z   2
loop_
 _symmetry_equiv_pos_site_id
 _symmetry_equiv_pos_as_xyz
  1  'x, y, z'
loop_
 _atom_site_type_symbol
 _atom_site_label
 _atom_site_symmetry_multiplicity
 _atom_site_fract_x
 _atom_site_fract_y
 _atom_site_fract_z
 _atom_site_occupancy
  C  C1  1  0.178340  0.773245  0.250000  1.0
  C  C2  1  0.226755  0.405095  0.250000  1.0
  C  C3  1  0.594905  0.821660  0.250000  1.0
  C  C4  1  0.821660  0.226755  0.750000  1.0
  C  C5  1  0.773245  0.594905  0.750000  1.0
  C  C6  1  0.405095  0.178340  0.750000  1.0
  N  N7  1  0.329887  0.033307  0.250000  1.0
  N  N8  1  0.966693  0.296580  0.250000  1.0
  N  N9  1  0.703420  0.670113  0.250000  1.0
  N  N10  1  0.670113  0.966693  0.750000  1.0
  N  N11  1  0.033307  0.703420  0.750000  1.0
  N  N12  1  0.296580  0.329887  0.750000  1.0
  N  N13  1  0.333333  0.666667  0.250000  1.0
  N  N14  1  0.666667  0.333333  0.750000  1.0
