# generated using pymatgen
data_Li(CuP)2
_symmetry_space_group_name_H-M   'P 1'
_cell_length_a   3.88414532
_cell_length_b   3.88414532
_cell_length_c   5.50098283
_cell_angle_alpha   110.67343144
_cell_angle_beta   110.67343149
_cell_angle_gamma   89.99999997
_symmetry_Int_Tables_number   1
_chemical_formula_structural   Li(CuP)2
_chemical_formula_sum   'Li1 Cu2 P2'
_cell_volume   71.90703750
_cell_formula_units_Z   1
loop_
 _symmetry_equiv_pos_site_id
 _symmetry_equiv_pos_as_xyz
  1  'x, y, z'
loop_
 _atom_site_type_symbol
 _atom_site_label
 _atom_site_symmetry_multiplicity
 _atom_site_fract_x
 _atom_site_fract_y
 _atom_site_fract_z
 _atom_site_occupancy
  Li  Li1  1  0.000000  0.000000  0.000000  1.0
  Cu  Cu2  1  0.250000  0.750000  0.500000  1.0
  Cu  Cu3  1  0.750000  0.250000  0.500000  1.0
  P  P4  1  0.612710  0.612710  0.225420  1.0
  P  P5  1  0.387290  0.387290  0.774580  1.0
