# generated using pymatgen
data_ErGe
_symmetry_space_group_name_H-M   'P 1'
_cell_length_a   3.93088369
_cell_length_b   4.24991487
_cell_length_c   5.73242324
_cell_angle_alpha   111.75823634
_cell_angle_beta   90.00000000
_cell_angle_gamma   90.00000000
_symmetry_Int_Tables_number   1
_chemical_formula_structural   ErGe
_chemical_formula_sum   'Er2 Ge2'
_cell_volume   88.94272553
_cell_formula_units_Z   2
loop_
 _symmetry_equiv_pos_site_id
 _symmetry_equiv_pos_as_xyz
  1  'x, y, z'
loop_
 _atom_site_type_symbol
 _atom_site_label
 _atom_site_symmetry_multiplicity
 _atom_site_fract_x
 _atom_site_fract_y
 _atom_site_fract_z
 _atom_site_occupancy
  Er  Er1  1  0.250000  0.861870  0.723741  1.0
  Er  Er2  1  0.750000  0.138129  0.276259  1.0
  Ge  Ge3  1  0.250000  0.586638  0.173276  1.0
  Ge  Ge4  1  0.750000  0.413362  0.826724  1.0
