# generated using pymatgen
data_Sc3RuC4
_symmetry_space_group_name_H-M   'P 1'
_cell_length_a   3.33292569
_cell_length_b   4.50403338
_cell_length_c   6.81640955
_cell_angle_alpha   109.29194222
_cell_angle_beta   104.15099308
_cell_angle_gamma   90.00000000
_symmetry_Int_Tables_number   1
_chemical_formula_structural   Sc3RuC4
_chemical_formula_sum   'Sc3 Ru1 C4'
_cell_volume   93.28330188
_cell_formula_units_Z   1
loop_
 _symmetry_equiv_pos_site_id
 _symmetry_equiv_pos_as_xyz
  1  'x, y, z'
loop_
 _atom_site_type_symbol
 _atom_site_label
 _atom_site_symmetry_multiplicity
 _atom_site_fract_x
 _atom_site_fract_y
 _atom_site_fract_z
 _atom_site_occupancy
  Sc  Sc1  1  0.810600  0.810600  0.621199  1.0
  Sc  Sc2  1  0.189400  0.189400  0.378801  1.0
  Sc  Sc3  1  0.000000  0.500000  0.000000  1.0
  Ru  Ru4  1  0.500000  0.000000  0.000000  1.0
  C  C5  1  0.629134  0.787809  0.258267  1.0
  C  C6  1  0.370866  0.212191  0.741733  1.0
  C  C7  1  0.370866  0.529541  0.741733  1.0
  C  C8  1  0.629134  0.470459  0.258267  1.0
