# generated using pymatgen
data_MnS
_symmetry_space_group_name_H-M   'P 1'
_cell_length_a   3.95802528
_cell_length_b   3.95802521
_cell_length_c   6.64248332
_cell_angle_alpha   90.00000302
_cell_angle_beta   72.66652675
_cell_angle_gamma   60.00000361
_symmetry_Int_Tables_number   1
_chemical_formula_structural   MnS
_chemical_formula_sum   'Mn2 S2'
_cell_volume   84.61861295
_cell_formula_units_Z   2
loop_
 _symmetry_equiv_pos_site_id
 _symmetry_equiv_pos_as_xyz
  1  'x, y, z'
loop_
 _atom_site_type_symbol
 _atom_site_label
 _atom_site_symmetry_multiplicity
 _atom_site_fract_x
 _atom_site_fract_y
 _atom_site_fract_z
 _atom_site_occupancy
  Mn  Mn1  1  0.000899  0.999551  0.998652  1.0
  Mn  Mn2  1  0.000881  0.499559  0.498678  1.0
  S  S3  1  0.249113  0.375443  0.126330  1.0
  S  S4  1  0.249106  0.875447  0.626341  1.0
