# generated using pymatgen
data_Er2O3
_symmetry_space_group_name_H-M   'P 1'
_cell_length_a   3.46044464
_cell_length_b   7.18515976
_cell_length_c   8.56523450
_cell_angle_alpha   100.07007797
_cell_angle_beta   90.00000000
_cell_angle_gamma   103.93405634
_symmetry_Int_Tables_number   1
_chemical_formula_structural   Er2O3
_chemical_formula_sum   'Er6 O9'
_cell_volume   203.31598512
_cell_formula_units_Z   3
loop_
 _symmetry_equiv_pos_site_id
 _symmetry_equiv_pos_as_xyz
  1  'x, y, z'
loop_
 _atom_site_type_symbol
 _atom_site_label
 _atom_site_symmetry_multiplicity
 _atom_site_fract_x
 _atom_site_fract_y
 _atom_site_fract_z
 _atom_site_occupancy
  Er  Er1  1  0.532089  0.064177  0.814032  1.0
  Er  Er2  1  0.467911  0.935823  0.185968  1.0
  Er  Er3  1  0.808604  0.617207  0.862827  1.0
  Er  Er4  1  0.191396  0.382793  0.137173  1.0
  Er  Er5  1  0.864852  0.729705  0.512368  1.0
  Er  Er6  1  0.135148  0.270295  0.487632  1.0
  O  O7  1  0.706952  0.413904  0.622605  1.0
  O  O8  1  0.293048  0.586096  0.377395  1.0
  O  O9  1  0.970337  0.940675  0.342916  1.0
  O  O10  1  0.029663  0.059325  0.657084  1.0
  O  O11  1  0.674553  0.349107  0.969022  1.0
  O  O12  1  0.325447  0.650893  0.030978  1.0
  O  O13  1  0.000000  0.000000  0.000000  1.0
  O  O14  1  0.372387  0.744775  0.718498  1.0
  O  O15  1  0.627613  0.255225  0.281502  1.0
