# generated using pymatgen
data_Zr3Te
_symmetry_space_group_name_H-M   'P 1'
_cell_length_a   5.68373886
_cell_length_b   8.55333294
_cell_length_c   8.55333294
_cell_angle_alpha   83.66208856
_cell_angle_beta   70.59442724
_cell_angle_gamma   70.59442723
_symmetry_Int_Tables_number   1
_chemical_formula_structural   Zr3Te
_chemical_formula_sum   'Zr12 Te4'
_cell_volume   369.91638214
_cell_formula_units_Z   4
loop_
 _symmetry_equiv_pos_site_id
 _symmetry_equiv_pos_as_xyz
  1  'x, y, z'
loop_
 _atom_site_type_symbol
 _atom_site_label
 _atom_site_symmetry_multiplicity
 _atom_site_fract_x
 _atom_site_fract_y
 _atom_site_fract_z
 _atom_site_occupancy
  Zr  Zr1  1  0.292866  0.021034  0.814661  1.0
  Zr  Zr2  1  0.892473  0.814661  0.978966  1.0
  Zr  Zr3  1  0.686100  0.185339  0.021034  1.0
  Zr  Zr4  1  0.128561  0.978966  0.185339  1.0
  Zr  Zr5  1  0.334540  0.660673  0.623303  1.0
  Zr  Zr6  1  0.042157  0.623303  0.339327  1.0
  Zr  Zr7  1  0.004787  0.376697  0.660673  1.0
  Zr  Zr8  1  0.618516  0.339327  0.376697  1.0
  Zr  Zr9  1  0.951299  0.030499  0.596242  1.0
  Zr  Zr10  1  0.452459  0.596242  0.969501  1.0
  Zr  Zr11  1  0.018202  0.403758  0.030499  1.0
  Zr  Zr12  1  0.578040  0.969501  0.403758  1.0
  Te  Te13  1  0.764570  0.743491  0.679896  1.0
  Te  Te14  1  0.555535  0.679896  0.256509  1.0
  Te  Te15  1  0.491939  0.320104  0.743491  1.0
  Te  Te16  1  0.187957  0.256509  0.320104  1.0
