# generated using pymatgen
data_NbS2
_symmetry_space_group_name_H-M   'P 1'
_cell_length_a   6.95318331
_cell_length_b   6.95318331
_cell_length_c   6.95318331
_cell_angle_alpha   28.13664248
_cell_angle_beta   28.13664247
_cell_angle_gamma   28.13664248
_symmetry_Int_Tables_number   1
_chemical_formula_structural   NbS2
_chemical_formula_sum   'Nb1 S2'
_cell_volume   66.04144326
_cell_formula_units_Z   1
loop_
 _symmetry_equiv_pos_site_id
 _symmetry_equiv_pos_as_xyz
  1  'x, y, z'
loop_
 _atom_site_type_symbol
 _atom_site_label
 _atom_site_symmetry_multiplicity
 _atom_site_fract_x
 _atom_site_fract_y
 _atom_site_fract_z
 _atom_site_occupancy
  Nb  Nb1  1  0.000000  0.000000  0.000000  1.0
  S  S2  1  0.744190  0.744190  0.744190  1.0
  S  S3  1  0.255810  0.255810  0.255810  1.0
