# generated using pymatgen
data_SiRh
_symmetry_space_group_name_H-M   'P 1'
_cell_length_a   4.60255100
_cell_length_b   4.62172329
_cell_length_c   5.56172014
_cell_angle_alpha   113.65387868
_cell_angle_beta   90.00000000
_cell_angle_gamma   90.00000000
_symmetry_Int_Tables_number   1
_chemical_formula_structural   SiRh
_chemical_formula_sum   'Si4 Rh4'
_cell_volume   108.36784752
_cell_formula_units_Z   4
loop_
 _symmetry_equiv_pos_site_id
 _symmetry_equiv_pos_as_xyz
  1  'x, y, z'
loop_
 _atom_site_type_symbol
 _atom_site_label
 _atom_site_symmetry_multiplicity
 _atom_site_fract_x
 _atom_site_fract_y
 _atom_site_fract_z
 _atom_site_occupancy
  Si  Si1  1  0.647076  0.270591  0.057993  1.0
  Si  Si2  1  0.147076  0.229409  0.442007  1.0
  Si  Si3  1  0.352924  0.729409  0.942007  1.0
  Si  Si4  1  0.852924  0.770591  0.557993  1.0
  Rh  Rh5  1  0.643664  0.318987  0.618755  1.0
  Rh  Rh6  1  0.143664  0.181013  0.881245  1.0
  Rh  Rh7  1  0.356336  0.681013  0.381245  1.0
  Rh  Rh8  1  0.856336  0.818987  0.118755  1.0
