# generated using pymatgen
data_VSb2
_symmetry_space_group_name_H-M   'P 1'
_cell_length_a   5.44799519
_cell_length_b   5.44799520
_cell_length_c   5.44799519
_cell_angle_alpha   105.35546124
_cell_angle_beta   105.35546134
_cell_angle_gamma   118.05940744
_symmetry_Int_Tables_number   1
_chemical_formula_structural   VSb2
_chemical_formula_sum   'V2 Sb4'
_cell_volume   122.35061173
_cell_formula_units_Z   2
loop_
 _symmetry_equiv_pos_site_id
 _symmetry_equiv_pos_as_xyz
  1  'x, y, z'
loop_
 _atom_site_type_symbol
 _atom_site_label
 _atom_site_symmetry_multiplicity
 _atom_site_fract_x
 _atom_site_fract_y
 _atom_site_fract_z
 _atom_site_occupancy
  V  V1  1  0.750000  0.750000  0.000000  1.0
  V  V2  1  0.250000  0.250000  0.000000  1.0
  Sb  Sb3  1  0.843091  0.656909  0.500000  1.0
  Sb  Sb4  1  0.343091  0.843091  0.186183  1.0
  Sb  Sb5  1  0.156909  0.343091  0.500000  1.0
  Sb  Sb6  1  0.656909  0.156909  0.813817  1.0
