# generated using pymatgen
data_Yb3In3Ge2Au
_symmetry_space_group_name_H-M   'P 1'
_cell_length_a   7.39419590
_cell_length_b   7.39343929
_cell_length_c   4.45907866
_cell_angle_alpha   90.00000000
_cell_angle_beta   90.00000000
_cell_angle_gamma   120.00339423
_symmetry_Int_Tables_number   1
_chemical_formula_structural   Yb3In3Ge2Au
_chemical_formula_sum   'Yb3 In3 Ge2 Au1'
_cell_volume   211.10492912
_cell_formula_units_Z   1
loop_
 _symmetry_equiv_pos_site_id
 _symmetry_equiv_pos_as_xyz
  1  'x, y, z'
loop_
 _atom_site_type_symbol
 _atom_site_label
 _atom_site_symmetry_multiplicity
 _atom_site_fract_x
 _atom_site_fract_y
 _atom_site_fract_z
 _atom_site_occupancy
  Yb  Yb1  1  0.417854  0.000000  0.500000  1.0
  Yb  Yb2  1  0.999991  0.417838  0.500000  1.0
  Yb  Yb3  1  0.582152  0.582162  0.500000  1.0
  In  In4  1  0.748668  0.000000  0.000000  1.0
  In  In5  1  0.999993  0.748672  0.000000  1.0
  In  In6  1  0.251318  0.251328  0.000000  1.0
  Ge  Ge7  1  0.333308  0.666679  0.000000  1.0
  Ge  Ge8  1  0.666631  0.333321  0.000000  1.0
  Au  Au9  1  0.999983  0.000000  0.500000  1.0
