# generated using pymatgen
data_NdFeSi2
_symmetry_space_group_name_H-M   'P 1'
_cell_length_a   4.02874174
_cell_length_b   4.10378328
_cell_length_c   8.72506655
_cell_angle_alpha   103.60176422
_cell_angle_beta   90.00000000
_cell_angle_gamma   90.00000000
_symmetry_Int_Tables_number   1
_chemical_formula_structural   NdFeSi2
_chemical_formula_sum   'Nd2 Fe2 Si4'
_cell_volume   140.20651614
_cell_formula_units_Z   2
loop_
 _symmetry_equiv_pos_site_id
 _symmetry_equiv_pos_as_xyz
  1  'x, y, z'
loop_
 _atom_site_type_symbol
 _atom_site_label
 _atom_site_symmetry_multiplicity
 _atom_site_fract_x
 _atom_site_fract_y
 _atom_site_fract_z
 _atom_site_occupancy
  Nd  Nd1  1  0.250000  0.892329  0.784659  1.0
  Nd  Nd2  1  0.750000  0.107671  0.215341  1.0
  Fe  Fe3  1  0.750000  0.749673  0.499344  1.0
  Fe  Fe4  1  0.250000  0.250327  0.500656  1.0
  Si  Si5  1  0.250000  0.689190  0.378380  1.0
  Si  Si6  1  0.750000  0.310810  0.621620  1.0
  Si  Si7  1  0.750000  0.462116  0.924231  1.0
  Si  Si8  1  0.250000  0.537884  0.075769  1.0
