# generated using pymatgen
data_Ce(AlZn)2
_symmetry_space_group_name_H-M   'P 1'
_cell_length_a   4.20321258
_cell_length_b   4.20321258
_cell_length_c   6.22062543
_cell_angle_alpha   109.74562518
_cell_angle_beta   109.74562513
_cell_angle_gamma   90.00000003
_symmetry_Int_Tables_number   1
_chemical_formula_structural   Ce(AlZn)2
_chemical_formula_sum   'Ce1 Al2 Zn2'
_cell_volume   96.54440738
_cell_formula_units_Z   1
loop_
 _symmetry_equiv_pos_site_id
 _symmetry_equiv_pos_as_xyz
  1  'x, y, z'
loop_
 _atom_site_type_symbol
 _atom_site_label
 _atom_site_symmetry_multiplicity
 _atom_site_fract_x
 _atom_site_fract_y
 _atom_site_fract_z
 _atom_site_occupancy
  Ce  Ce1  1  0.000000  0.000000  0.000000  1.0
  Al  Al2  1  0.250000  0.750000  0.500000  1.0
  Al  Al3  1  0.750000  0.250000  0.500000  1.0
  Zn  Zn4  1  0.611803  0.611803  0.223606  1.0
  Zn  Zn5  1  0.388197  0.388197  0.776394  1.0
