# generated using pymatgen
data_ScSiAu
_symmetry_space_group_name_H-M   'P 1'
_cell_length_a   4.26165776
_cell_length_b   4.26165776
_cell_length_c   6.86278445
_cell_angle_alpha   90.00000000
_cell_angle_beta   90.00000000
_cell_angle_gamma   120.00000002
_symmetry_Int_Tables_number   1
_chemical_formula_structural   ScSiAu
_chemical_formula_sum   'Sc2 Si2 Au2'
_cell_volume   107.94142077
_cell_formula_units_Z   2
loop_
 _symmetry_equiv_pos_site_id
 _symmetry_equiv_pos_as_xyz
  1  'x, y, z'
loop_
 _atom_site_type_symbol
 _atom_site_label
 _atom_site_symmetry_multiplicity
 _atom_site_fract_x
 _atom_site_fract_y
 _atom_site_fract_z
 _atom_site_occupancy
  Sc  Sc1  1  0.000000  0.000000  0.000000  1.0
  Sc  Sc2  1  0.000000  0.000000  0.500000  1.0
  Si  Si3  1  0.333333  0.666667  0.703641  1.0
  Si  Si4  1  0.333333  0.666667  0.296359  1.0
  Au  Au5  1  0.666667  0.333333  0.215979  1.0
  Au  Au6  1  0.666667  0.333333  0.784021  1.0
