# generated using pymatgen
data_Sr(FeP)2
_symmetry_space_group_name_H-M   'P 1'
_cell_length_a   3.81864670
_cell_length_b   3.81864670
_cell_length_c   6.29731743
_cell_angle_alpha   107.64968197
_cell_angle_beta   107.64968196
_cell_angle_gamma   89.99999998
_symmetry_Int_Tables_number   1
_chemical_formula_structural   Sr(FeP)2
_chemical_formula_sum   'Sr1 Fe2 P2'
_cell_volume   82.95793668
_cell_formula_units_Z   1
loop_
 _symmetry_equiv_pos_site_id
 _symmetry_equiv_pos_as_xyz
  1  'x, y, z'
loop_
 _atom_site_type_symbol
 _atom_site_label
 _atom_site_symmetry_multiplicity
 _atom_site_fract_x
 _atom_site_fract_y
 _atom_site_fract_z
 _atom_site_occupancy
  Sr  Sr1  1  0.000000  0.000000  0.000000  1.0
  Fe  Fe2  1  0.250000  0.750000  0.500000  1.0
  Fe  Fe3  1  0.750000  0.250000  0.500000  1.0
  P  P4  1  0.654098  0.654098  0.308196  1.0
  P  P5  1  0.345902  0.345902  0.691804  1.0
