# generated using pymatgen
data_Tl3V
_symmetry_space_group_name_H-M   'P 1'
_cell_length_a   5.78172324
_cell_length_b   5.78172324
_cell_length_c   5.78172324
_cell_angle_alpha   132.86391838
_cell_angle_beta   132.86391838
_cell_angle_gamma   68.86793680
_symmetry_Int_Tables_number   1
_chemical_formula_structural   Tl3V
_chemical_formula_sum   'Tl3 V1'
_cell_volume   101.93819353
_cell_formula_units_Z   1
loop_
 _symmetry_equiv_pos_site_id
 _symmetry_equiv_pos_as_xyz
  1  'x, y, z'
loop_
 _atom_site_type_symbol
 _atom_site_label
 _atom_site_symmetry_multiplicity
 _atom_site_fract_x
 _atom_site_fract_y
 _atom_site_fract_z
 _atom_site_occupancy
  Tl  Tl1  1  0.749998  0.249999  0.499998  1.0
  Tl  Tl2  1  0.249999  0.749998  0.499998  1.0
  Tl  Tl3  1  0.500000  0.500000  0.000000  1.0
  V  V4  1  0.000000  0.000000  0.000000  1.0
