# generated using pymatgen
data_Ga4GeO8
_symmetry_space_group_name_H-M   'P 1'
_cell_length_a   3.04750615
_cell_length_b   6.37860844
_cell_length_c   7.96609751
_cell_angle_alpha   82.41959762
_cell_angle_beta   78.97252217
_cell_angle_gamma   76.17926590
_symmetry_Int_Tables_number   1
_chemical_formula_structural   Ga4GeO8
_chemical_formula_sum   'Ga4 Ge1 O8'
_cell_volume   146.98683200
_cell_formula_units_Z   1
loop_
 _symmetry_equiv_pos_site_id
 _symmetry_equiv_pos_as_xyz
  1  'x, y, z'
loop_
 _atom_site_type_symbol
 _atom_site_label
 _atom_site_symmetry_multiplicity
 _atom_site_fract_x
 _atom_site_fract_y
 _atom_site_fract_z
 _atom_site_occupancy
  Ga  Ga1  1  0.462563  0.357847  0.717027  1.0
  Ga  Ga2  1  0.537437  0.642153  0.282973  1.0
  Ga  Ga3  1  0.758417  0.843615  0.639551  1.0
  Ga  Ga4  1  0.241583  0.156385  0.360449  1.0
  Ge  Ge5  1  0.000000  0.000000  0.000000  1.0
  O  O6  1  0.889787  0.524736  0.695691  1.0
  O  O7  1  0.110213  0.475264  0.304309  1.0
  O  O8  1  0.440706  0.190691  0.927897  1.0
  O  O9  1  0.559294  0.809309  0.072103  1.0
  O  O10  1  0.645870  0.170800  0.537460  1.0
  O  O11  1  0.839310  0.105779  0.215600  1.0
  O  O12  1  0.160690  0.894221  0.784400  1.0
  O  O13  1  0.354130  0.829200  0.462540  1.0
