# generated using pymatgen
data_SrMg5
_symmetry_space_group_name_H-M   'P 1'
_cell_length_a   5.05966278
_cell_length_b   6.19016649
_cell_length_c   6.19016872
_cell_angle_alpha   60.00000401
_cell_angle_beta   90.00000000
_cell_angle_gamma   90.00000000
_symmetry_Int_Tables_number   1
_chemical_formula_structural   SrMg5
_chemical_formula_sum   'Sr1 Mg5'
_cell_volume   167.90245187
_cell_formula_units_Z   1
loop_
 _symmetry_equiv_pos_site_id
 _symmetry_equiv_pos_as_xyz
  1  'x, y, z'
loop_
 _atom_site_type_symbol
 _atom_site_label
 _atom_site_symmetry_multiplicity
 _atom_site_fract_x
 _atom_site_fract_y
 _atom_site_fract_z
 _atom_site_occupancy
  Sr  Sr1  1  0.500000  0.666667  0.333333  1.0
  Mg  Mg2  1  0.000000  0.172047  0.827953  1.0
  Mg  Mg3  1  0.500000  0.333333  0.000001  1.0
  Mg  Mg4  1  0.000000  0.161285  0.333333  1.0
  Mg  Mg5  1  0.500000  0.000000  0.666667  1.0
  Mg  Mg6  1  0.000000  0.666667  0.838714  1.0
