# generated using pymatgen
data_KMnSb
_symmetry_space_group_name_H-M   'P 1'
_cell_length_a   4.66928929
_cell_length_b   4.66928929
_cell_length_c   8.29805991
_cell_angle_alpha   90.00000000
_cell_angle_beta   90.00000000
_cell_angle_gamma   90.00000000
_symmetry_Int_Tables_number   1
_chemical_formula_structural   KMnSb
_chemical_formula_sum   'K2 Mn2 Sb2'
_cell_volume   180.91648018
_cell_formula_units_Z   2
loop_
 _symmetry_equiv_pos_site_id
 _symmetry_equiv_pos_as_xyz
  1  'x, y, z'
loop_
 _atom_site_type_symbol
 _atom_site_label
 _atom_site_symmetry_multiplicity
 _atom_site_fract_x
 _atom_site_fract_y
 _atom_site_fract_z
 _atom_site_occupancy
  K  K1  1  0.250000  0.250000  0.654365  1.0
  K  K2  1  0.750000  0.750000  0.345635  1.0
  Mn  Mn3  1  0.250000  0.750000  0.000000  1.0
  Mn  Mn4  1  0.750000  0.250000  0.000000  1.0
  Sb  Sb5  1  0.250000  0.250000  0.186310  1.0
  Sb  Sb6  1  0.750000  0.750000  0.813690  1.0
