# generated using pymatgen
data_MnFeAs
_symmetry_space_group_name_H-M   'P 1'
_cell_length_a   6.26306786
_cell_length_b   6.26306786
_cell_length_c   3.45002379
_cell_angle_alpha   90.00000000
_cell_angle_beta   90.00000000
_cell_angle_gamma   120.00000001
_symmetry_Int_Tables_number   1
_chemical_formula_structural   MnFeAs
_chemical_formula_sum   'Mn3 Fe3 As3'
_cell_volume   117.19982306
_cell_formula_units_Z   3
loop_
 _symmetry_equiv_pos_site_id
 _symmetry_equiv_pos_as_xyz
  1  'x, y, z'
loop_
 _atom_site_type_symbol
 _atom_site_label
 _atom_site_symmetry_multiplicity
 _atom_site_fract_x
 _atom_site_fract_y
 _atom_site_fract_z
 _atom_site_occupancy
  Mn  Mn1  1  0.594506  0.000000  0.500000  1.0
  Mn  Mn2  1  0.405494  0.405494  0.500000  1.0
  Mn  Mn3  1  0.000000  0.594506  0.500000  1.0
  Fe  Fe4  1  0.254962  0.000000  0.000000  1.0
  Fe  Fe5  1  0.745038  0.745038  0.000000  1.0
  Fe  Fe6  1  0.000000  0.254962  0.000000  1.0
  As  As7  1  0.333333  0.666667  0.000000  1.0
  As  As8  1  0.666667  0.333333  0.000000  1.0
  As  As9  1  0.000000  0.000000  0.500000  1.0
