# generated using pymatgen
data_SF4
_symmetry_space_group_name_H-M   'P 1'
_cell_length_a   4.93703694
_cell_length_b   4.93703656
_cell_length_c   5.08660447
_cell_angle_alpha   58.99268759
_cell_angle_beta   58.99268480
_cell_angle_gamma   62.01464318
_symmetry_Int_Tables_number   1
_chemical_formula_structural   SF4
_chemical_formula_sum   'S1 F4'
_cell_volume   87.50294375
_cell_formula_units_Z   1
loop_
 _symmetry_equiv_pos_site_id
 _symmetry_equiv_pos_as_xyz
  1  'x, y, z'
loop_
 _atom_site_type_symbol
 _atom_site_label
 _atom_site_symmetry_multiplicity
 _atom_site_fract_x
 _atom_site_fract_y
 _atom_site_fract_z
 _atom_site_occupancy
  S  S1  1  0.000000  0.000000  0.000000  1.0
  F  F2  1  0.320447  0.875143  0.124857  1.0
  F  F3  1  0.679553  0.124857  0.320447  1.0
  F  F4  1  0.124857  0.679553  0.875143  1.0
  F  F5  1  0.875143  0.320447  0.679553  1.0
