# generated using pymatgen
data_LiBeN
_symmetry_space_group_name_H-M   'P 1'
_cell_length_a   4.55030833
_cell_length_b   4.76593546
_cell_length_c   4.91501820
_cell_angle_alpha   90.00000000
_cell_angle_beta   104.52052208
_cell_angle_gamma   90.00000000
_symmetry_Int_Tables_number   1
_chemical_formula_structural   LiBeN
_chemical_formula_sum   'Li4 Be4 N4'
_cell_volume   103.18473310
_cell_formula_units_Z   4
loop_
 _symmetry_equiv_pos_site_id
 _symmetry_equiv_pos_as_xyz
  1  'x, y, z'
loop_
 _atom_site_type_symbol
 _atom_site_label
 _atom_site_symmetry_multiplicity
 _atom_site_fract_x
 _atom_site_fract_y
 _atom_site_fract_z
 _atom_site_occupancy
  Li  Li1  1  0.234574  0.456771  0.909768  1.0
  Li  Li2  1  0.265426  0.956771  0.590232  1.0
  Li  Li3  1  0.765426  0.543229  0.090232  1.0
  Li  Li4  1  0.734574  0.043229  0.409768  1.0
  Be  Be5  1  0.687398  0.608461  0.607663  1.0
  Be  Be6  1  0.812602  0.108461  0.892337  1.0
  Be  Be7  1  0.312602  0.391539  0.392337  1.0
  Be  Be8  1  0.187398  0.891539  0.107663  1.0
  N  N9  1  0.950031  0.805169  0.800812  1.0
  N  N10  1  0.549969  0.305169  0.699188  1.0
  N  N11  1  0.049969  0.194831  0.199188  1.0
  N  N12  1  0.450031  0.694831  0.300812  1.0
