# generated using pymatgen
data_Nd(SiPt)2
_symmetry_space_group_name_H-M   'P 1'
_cell_length_a   4.25155140
_cell_length_b   4.25155165
_cell_length_c   5.82843903
_cell_angle_alpha   111.39064131
_cell_angle_beta   111.39064655
_cell_angle_gamma   89.99999545
_symmetry_Int_Tables_number   1
_chemical_formula_structural   Nd(SiPt)2
_chemical_formula_sum   'Nd1 Si2 Pt2'
_cell_volume   90.25700217
_cell_formula_units_Z   1
loop_
 _symmetry_equiv_pos_site_id
 _symmetry_equiv_pos_as_xyz
  1  'x, y, z'
loop_
 _atom_site_type_symbol
 _atom_site_label
 _atom_site_symmetry_multiplicity
 _atom_site_fract_x
 _atom_site_fract_y
 _atom_site_fract_z
 _atom_site_occupancy
  Nd  Nd1  1  0.000000  0.000000  0.000000  1.0
  Si  Si2  1  0.620113  0.620113  0.240225  1.0
  Si  Si3  1  0.379887  0.379887  0.759775  1.0
  Pt  Pt4  1  0.250000  0.750000  0.500000  1.0
  Pt  Pt5  1  0.750000  0.250000  0.500000  1.0
