# generated using pymatgen
data_SrNiSn3
_symmetry_space_group_name_H-M   'P 1'
_cell_length_a   4.79040984
_cell_length_b   4.79040984
_cell_length_c   6.45024915
_cell_angle_alpha   111.79798955
_cell_angle_beta   111.79798953
_cell_angle_gamma   90.00000006
_symmetry_Int_Tables_number   1
_chemical_formula_structural   SrNiSn3
_chemical_formula_sum   'Sr1 Ni1 Sn3'
_cell_volume   125.96710992
_cell_formula_units_Z   1
loop_
 _symmetry_equiv_pos_site_id
 _symmetry_equiv_pos_as_xyz
  1  'x, y, z'
loop_
 _atom_site_type_symbol
 _atom_site_label
 _atom_site_symmetry_multiplicity
 _atom_site_fract_x
 _atom_site_fract_y
 _atom_site_fract_z
 _atom_site_occupancy
  Sr  Sr1  1  0.999952  0.999952  0.999904  1.0
  Ni  Ni2  1  0.658742  0.658742  0.317484  1.0
  Sn  Sn3  1  0.429985  0.429985  0.859971  1.0
  Sn  Sn4  1  0.749660  0.249660  0.499320  1.0
  Sn  Sn5  1  0.249660  0.749660  0.499320  1.0
