# generated using pymatgen
data_V(CrC)2
_symmetry_space_group_name_H-M   'P 1'
_cell_length_a   2.84608509
_cell_length_b   4.80571897
_cell_length_c   7.10046434
_cell_angle_alpha   90.00000000
_cell_angle_beta   90.00000000
_cell_angle_gamma   107.22437310
_symmetry_Int_Tables_number   1
_chemical_formula_structural   V(CrC)2
_chemical_formula_sum   'V2 Cr4 C4'
_cell_volume   92.76106171
_cell_formula_units_Z   2
loop_
 _symmetry_equiv_pos_site_id
 _symmetry_equiv_pos_as_xyz
  1  'x, y, z'
loop_
 _atom_site_type_symbol
 _atom_site_label
 _atom_site_symmetry_multiplicity
 _atom_site_fract_x
 _atom_site_fract_y
 _atom_site_fract_z
 _atom_site_occupancy
  V  V1  1  0.404132  0.808264  0.750000  1.0
  V  V2  1  0.595868  0.191736  0.250000  1.0
  Cr  Cr3  1  0.140747  0.281495  0.571727  1.0
  Cr  Cr4  1  0.859253  0.718505  0.428273  1.0
  Cr  Cr5  1  0.859253  0.718505  0.071727  1.0
  Cr  Cr6  1  0.140747  0.281495  0.928273  1.0
  C  C7  1  0.250492  0.500984  0.250000  1.0
  C  C8  1  0.749508  0.499016  0.750000  1.0
  C  C9  1  0.500000  0.000000  0.500000  1.0
  C  C10  1  0.500000  0.000000  0.000000  1.0
