# generated using pymatgen
data_SnPS3
_symmetry_space_group_name_H-M   'P 1'
_cell_length_a   6.63060734
_cell_length_b   7.73139703
_cell_length_c   9.45361406
_cell_angle_alpha   90.00000000
_cell_angle_beta   91.46633879
_cell_angle_gamma   90.00000000
_symmetry_Int_Tables_number   1
_chemical_formula_structural   SnPS3
_chemical_formula_sum   'Sn4 P4 S12'
_cell_volume   484.47002707
_cell_formula_units_Z   4
loop_
 _symmetry_equiv_pos_site_id
 _symmetry_equiv_pos_as_xyz
  1  'x, y, z'
loop_
 _atom_site_type_symbol
 _atom_site_label
 _atom_site_symmetry_multiplicity
 _atom_site_fract_x
 _atom_site_fract_y
 _atom_site_fract_z
 _atom_site_occupancy
  Sn  Sn1  1  0.961906  0.641805  0.223401  1.0
  Sn  Sn2  1  0.538094  0.141805  0.276599  1.0
  Sn  Sn3  1  0.038094  0.358195  0.776599  1.0
  Sn  Sn4  1  0.461906  0.858195  0.723401  1.0
  P  P5  1  0.443517  0.604109  0.071186  1.0
  P  P6  1  0.056483  0.104109  0.428814  1.0
  P  P7  1  0.556483  0.395891  0.928814  1.0
  P  P8  1  0.943517  0.895891  0.571186  1.0
  S  S9  1  0.401716  0.496996  0.264392  1.0
  S  S10  1  0.098284  0.996996  0.235608  1.0
  S  S11  1  0.598284  0.503004  0.735608  1.0
  S  S12  1  0.901716  0.003004  0.764392  1.0
  S  S13  1  0.179696  0.684296  0.973967  1.0
  S  S14  1  0.320304  0.184296  0.526033  1.0
  S  S15  1  0.820304  0.315704  0.026033  1.0
  S  S16  1  0.679696  0.815704  0.473967  1.0
  S  S17  1  0.652101  0.796493  0.063579  1.0
  S  S18  1  0.847899  0.296493  0.436421  1.0
  S  S19  1  0.347899  0.203507  0.936421  1.0
  S  S20  1  0.152101  0.703507  0.563579  1.0
