# generated using pymatgen
data_Gd(SiNi)2
_symmetry_space_group_name_H-M   'P 1'
_cell_length_a   3.97492431
_cell_length_b   3.97440261
_cell_length_c   5.53925234
_cell_angle_alpha   111.07765473
_cell_angle_beta   111.07200456
_cell_angle_gamma   89.97582089
_symmetry_Int_Tables_number   1
_chemical_formula_structural   Gd(SiNi)2
_chemical_formula_sum   'Gd1 Si2 Ni2'
_cell_volume   75.35437261
_cell_formula_units_Z   1
loop_
 _symmetry_equiv_pos_site_id
 _symmetry_equiv_pos_as_xyz
  1  'x, y, z'
loop_
 _atom_site_type_symbol
 _atom_site_label
 _atom_site_symmetry_multiplicity
 _atom_site_fract_x
 _atom_site_fract_y
 _atom_site_fract_z
 _atom_site_occupancy
  Gd  Gd1  1  0.999997  0.000001  0.000000  1.0
  Si  Si2  1  0.627043  0.627036  0.254240  1.0
  Si  Si3  1  0.372954  0.372965  0.745760  1.0
  Ni  Ni4  1  0.750185  0.249841  0.500004  1.0
  Ni  Ni5  1  0.249821  0.750156  0.499997  1.0
