# generated using pymatgen
data_NaSi2Pd3
_symmetry_space_group_name_H-M   'P 1'
_cell_length_a   5.76913544
_cell_length_b   6.74065324
_cell_length_c   6.74065312
_cell_angle_alpha   63.31441846
_cell_angle_beta   64.66336836
_cell_angle_gamma   64.66335756
_symmetry_Int_Tables_number   1
_chemical_formula_structural   NaSi2Pd3
_chemical_formula_sum   'Na2 Si4 Pd6'
_cell_volume   202.45789370
_cell_formula_units_Z   2
loop_
 _symmetry_equiv_pos_site_id
 _symmetry_equiv_pos_as_xyz
  1  'x, y, z'
loop_
 _atom_site_type_symbol
 _atom_site_label
 _atom_site_symmetry_multiplicity
 _atom_site_fract_x
 _atom_site_fract_y
 _atom_site_fract_z
 _atom_site_occupancy
  Na  Na1  1  0.955663  0.000000  0.000000  1.0
  Na  Na2  1  0.019021  0.500000  0.500000  1.0
  Si  Si3  1  0.382514  0.689100  0.689100  1.0
  Si  Si4  1  0.281577  0.157333  0.157333  1.0
  Si  Si5  1  0.760713  0.310900  0.310900  1.0
  Si  Si6  1  0.596243  0.842667  0.842667  1.0
  Pd  Pd7  1  0.495628  0.049844  0.451753  1.0
  Pd  Pd8  1  0.495628  0.451753  0.049844  1.0
  Pd  Pd9  1  0.997224  0.950156  0.548247  1.0
  Pd  Pd10  1  0.501783  0.281510  0.718490  1.0
  Pd  Pd11  1  0.501783  0.718490  0.281510  1.0
  Pd  Pd12  1  0.997224  0.548247  0.950156  1.0
