# generated using pymatgen
data_BaSm2CoO5
_symmetry_space_group_name_H-M   'P 1'
_cell_length_a   3.81947429
_cell_length_b   5.94235556
_cell_length_c   6.88027248
_cell_angle_alpha   115.58508701
_cell_angle_beta   106.11400869
_cell_angle_gamma   89.99924900
_symmetry_Int_Tables_number   1
_chemical_formula_structural   BaSm2CoO5
_chemical_formula_sum   'Ba1 Sm2 Co1 O5'
_cell_volume   134.01289885
_cell_formula_units_Z   1
loop_
 _symmetry_equiv_pos_site_id
 _symmetry_equiv_pos_as_xyz
  1  'x, y, z'
loop_
 _atom_site_type_symbol
 _atom_site_label
 _atom_site_symmetry_multiplicity
 _atom_site_fract_x
 _atom_site_fract_y
 _atom_site_fract_z
 _atom_site_occupancy
  Ba  Ba1  1  0.000000  0.000000  0.000000  1.0
  Sm  Sm2  1  0.202981  0.702979  0.405959  1.0
  Sm  Sm3  1  0.797019  0.297022  0.594041  1.0
  Co  Co4  1  0.500000  0.500000  0.000000  1.0
  O  O5  1  0.351678  0.109041  0.703400  1.0
  O  O6  1  0.648321  0.890959  0.296600  1.0
  O  O7  1  0.648313  0.405579  0.296562  1.0
  O  O8  1  0.351687  0.594422  0.703438  1.0
  O  O9  1  0.000000  0.500000  0.000000  1.0
