# generated using pymatgen
data_NaAlF4
_symmetry_space_group_name_H-M   'P 1'
_cell_length_a   3.61787638
_cell_length_b   3.61787638
_cell_length_c   6.16408894
_cell_angle_alpha   90.00000000
_cell_angle_beta   90.00000000
_cell_angle_gamma   90.00000000
_symmetry_Int_Tables_number   1
_chemical_formula_structural   NaAlF4
_chemical_formula_sum   'Na1 Al1 F4'
_cell_volume   80.68194198
_cell_formula_units_Z   1
loop_
 _symmetry_equiv_pos_site_id
 _symmetry_equiv_pos_as_xyz
  1  'x, y, z'
loop_
 _atom_site_type_symbol
 _atom_site_label
 _atom_site_symmetry_multiplicity
 _atom_site_fract_x
 _atom_site_fract_y
 _atom_site_fract_z
 _atom_site_occupancy
  Na  Na1  1  0.000000  0.000000  0.000000  1.0
  Al  Al2  1  0.500000  0.500000  0.500000  1.0
  F  F3  1  0.500000  0.000000  0.500000  1.0
  F  F4  1  0.000000  0.500000  0.500000  1.0
  F  F5  1  0.500000  0.500000  0.207732  1.0
  F  F6  1  0.500000  0.500000  0.792268  1.0
