# generated using pymatgen
data_Yb2Si2O7
_symmetry_space_group_name_H-M   'P 1'
_cell_length_a   4.91147764
_cell_length_b   5.77562453
_cell_length_c   5.77562453
_cell_angle_alpha   107.12880281
_cell_angle_beta   97.23184255
_cell_angle_gamma   97.23184253
_symmetry_Int_Tables_number   1
_chemical_formula_structural   Yb2Si2O7
_chemical_formula_sum   'Yb2 Si2 O7'
_cell_volume   153.01195917
_cell_formula_units_Z   1
loop_
 _symmetry_equiv_pos_site_id
 _symmetry_equiv_pos_as_xyz
  1  'x, y, z'
loop_
 _atom_site_type_symbol
 _atom_site_label
 _atom_site_symmetry_multiplicity
 _atom_site_fract_x
 _atom_site_fract_y
 _atom_site_fract_z
 _atom_site_occupancy
  Yb  Yb1  1  0.000000  0.304472  0.695528  1.0
  Yb  Yb2  1  0.000000  0.684555  0.315445  1.0
  Si  Si3  1  0.398582  0.209728  0.220684  1.0
  Si  Si4  1  0.601418  0.779316  0.790272  1.0
  O  O5  1  0.213583  0.368265  0.092289  1.0
  O  O6  1  0.786417  0.907711  0.631735  1.0
  O  O7  1  0.213537  0.081303  0.379186  1.0
  O  O8  1  0.786463  0.620814  0.918697  1.0
  O  O9  1  0.500000  0.994532  0.005468  1.0
  O  O10  1  0.301699  0.619489  0.630485  1.0
  O  O11  1  0.698301  0.369515  0.380511  1.0
