# generated using pymatgen
data_CdCuF4
_symmetry_space_group_name_H-M   'P 1'
_cell_length_a   5.44297856
_cell_length_b   5.44297855
_cell_length_c   6.47977734
_cell_angle_alpha   114.83441985
_cell_angle_beta   114.83441980
_cell_angle_gamma   90.00000006
_symmetry_Int_Tables_number   1
_chemical_formula_structural   CdCuF4
_chemical_formula_sum   'Cd2 Cu2 F8'
_cell_volume   154.43796854
_cell_formula_units_Z   2
loop_
 _symmetry_equiv_pos_site_id
 _symmetry_equiv_pos_as_xyz
  1  'x, y, z'
loop_
 _atom_site_type_symbol
 _atom_site_label
 _atom_site_symmetry_multiplicity
 _atom_site_fract_x
 _atom_site_fract_y
 _atom_site_fract_z
 _atom_site_occupancy
  Cd  Cd1  1  0.750000  0.750000  0.500000  1.0
  Cd  Cd2  1  0.250000  0.250000  0.500000  1.0
  Cu  Cu3  1  0.500000  0.000000  0.000000  1.0
  Cu  Cu4  1  0.000000  0.500000  0.000000  1.0
  F  F5  1  0.947458  0.447458  0.255539  1.0
  F  F6  1  0.691919  0.191919  0.744461  1.0
  F  F7  1  0.052542  0.552542  0.744461  1.0
  F  F8  1  0.191919  0.052542  0.744461  1.0
  F  F9  1  0.308081  0.808081  0.255539  1.0
  F  F10  1  0.447458  0.308081  0.255539  1.0
  F  F11  1  0.808081  0.947458  0.255539  1.0
  F  F12  1  0.552542  0.691919  0.744461  1.0
