# generated using pymatgen
data_Er(CuSi)2
_symmetry_space_group_name_H-M   'P 1'
_cell_length_a   3.94238944
_cell_length_b   3.94238944
_cell_length_c   5.72452600
_cell_angle_alpha   110.14163411
_cell_angle_beta   110.14163407
_cell_angle_gamma   90.00000003
_symmetry_Int_Tables_number   1
_chemical_formula_structural   Er(CuSi)2
_chemical_formula_sum   'Er1 Cu2 Si2'
_cell_volume   77.71058815
_cell_formula_units_Z   1
loop_
 _symmetry_equiv_pos_site_id
 _symmetry_equiv_pos_as_xyz
  1  'x, y, z'
loop_
 _atom_site_type_symbol
 _atom_site_label
 _atom_site_symmetry_multiplicity
 _atom_site_fract_x
 _atom_site_fract_y
 _atom_site_fract_z
 _atom_site_occupancy
  Er  Er1  1  0.000000  0.000000  0.000000  1.0
  Cu  Cu2  1  0.250000  0.750000  0.500000  1.0
  Cu  Cu3  1  0.750000  0.250000  0.500000  1.0
  Si  Si4  1  0.616634  0.616634  0.233269  1.0
  Si  Si5  1  0.383366  0.383366  0.766731  1.0
