# generated using pymatgen
data_CeCuSn
_symmetry_space_group_name_H-M   'P 1'
_cell_length_a   4.61553299
_cell_length_b   4.61553299
_cell_length_c   7.58645851
_cell_angle_alpha   90.00000000
_cell_angle_beta   90.00000000
_cell_angle_gamma   119.99999995
_symmetry_Int_Tables_number   1
_chemical_formula_structural   CeCuSn
_chemical_formula_sum   'Ce2 Cu2 Sn2'
_cell_volume   139.96306291
_cell_formula_units_Z   2
loop_
 _symmetry_equiv_pos_site_id
 _symmetry_equiv_pos_as_xyz
  1  'x, y, z'
loop_
 _atom_site_type_symbol
 _atom_site_label
 _atom_site_symmetry_multiplicity
 _atom_site_fract_x
 _atom_site_fract_y
 _atom_site_fract_z
 _atom_site_occupancy
  Ce  Ce1  1  0.000000  0.000000  0.488495  1.0
  Ce  Ce2  1  0.000000  0.000000  0.988495  1.0
  Cu  Cu3  1  0.666667  0.333333  0.793873  1.0
  Cu  Cu4  1  0.333333  0.666667  0.293873  1.0
  Sn  Sn5  1  0.333333  0.666667  0.725233  1.0
  Sn  Sn6  1  0.666667  0.333333  0.225233  1.0
