# generated using pymatgen
data_ThBrN
_symmetry_space_group_name_H-M   'P 1'
_cell_length_a   4.06090518
_cell_length_b   4.06090518
_cell_length_c   8.69248711
_cell_angle_alpha   90.00000000
_cell_angle_beta   90.00000000
_cell_angle_gamma   90.00000000
_symmetry_Int_Tables_number   1
_chemical_formula_structural   ThBrN
_chemical_formula_sum   'Th2 Br2 N2'
_cell_volume   143.34737796
_cell_formula_units_Z   2
loop_
 _symmetry_equiv_pos_site_id
 _symmetry_equiv_pos_as_xyz
  1  'x, y, z'
loop_
 _atom_site_type_symbol
 _atom_site_label
 _atom_site_symmetry_multiplicity
 _atom_site_fract_x
 _atom_site_fract_y
 _atom_site_fract_z
 _atom_site_occupancy
  Th  Th1  1  0.750000  0.750000  0.865911  1.0
  Th  Th2  1  0.250000  0.250000  0.134089  1.0
  Br  Br3  1  0.250000  0.250000  0.666116  1.0
  Br  Br4  1  0.750000  0.750000  0.333884  1.0
  N  N5  1  0.750000  0.250000  0.000000  1.0
  N  N6  1  0.250000  0.750000  0.000000  1.0
