# generated using pymatgen
data_MnO2
_symmetry_space_group_name_H-M   'P 1'
_cell_length_a   2.92155351
_cell_length_b   4.58575959
_cell_length_c   9.44849993
_cell_angle_alpha   90.00000000
_cell_angle_beta   90.00000000
_cell_angle_gamma   90.00000000
_symmetry_Int_Tables_number   1
_chemical_formula_structural   MnO2
_chemical_formula_sum   'Mn4 O8'
_cell_volume   126.58667490
_cell_formula_units_Z   4
loop_
 _symmetry_equiv_pos_site_id
 _symmetry_equiv_pos_as_xyz
  1  'x, y, z'
loop_
 _atom_site_type_symbol
 _atom_site_label
 _atom_site_symmetry_multiplicity
 _atom_site_fract_x
 _atom_site_fract_y
 _atom_site_fract_z
 _atom_site_occupancy
  Mn  Mn1  1  0.750000  0.521088  0.634761  1.0
  Mn  Mn2  1  0.250000  0.021088  0.865239  1.0
  Mn  Mn3  1  0.250000  0.478909  0.365241  1.0
  Mn  Mn4  1  0.750000  0.978909  0.134759  1.0
  O  O5  1  0.250000  0.712482  0.536581  1.0
  O  O6  1  0.750000  0.212482  0.963419  1.0
  O  O7  1  0.250000  0.787521  0.036590  1.0
  O  O8  1  0.750000  0.287521  0.463410  1.0
  O  O9  1  0.250000  0.191603  0.216024  1.0
  O  O10  1  0.250000  0.308398  0.716021  1.0
  O  O11  1  0.750000  0.691603  0.283976  1.0
  O  O12  1  0.750000  0.808398  0.783979  1.0
