# generated using pymatgen
data_Sr2UO4
_symmetry_space_group_name_H-M   'P 1'
_cell_length_a   4.41878601
_cell_length_b   4.41878601
_cell_length_c   7.17465476
_cell_angle_alpha   107.93537940
_cell_angle_beta   107.93537940
_cell_angle_gamma   89.99999994
_symmetry_Int_Tables_number   1
_chemical_formula_structural   Sr2UO4
_chemical_formula_sum   'Sr2 U1 O4'
_cell_volume   126.10746620
_cell_formula_units_Z   1
loop_
 _symmetry_equiv_pos_site_id
 _symmetry_equiv_pos_as_xyz
  1  'x, y, z'
loop_
 _atom_site_type_symbol
 _atom_site_label
 _atom_site_symmetry_multiplicity
 _atom_site_fract_x
 _atom_site_fract_y
 _atom_site_fract_z
 _atom_site_occupancy
  Sr  Sr1  1  0.352172  0.352172  0.704343  1.0
  Sr  Sr2  1  0.647828  0.647828  0.295657  1.0
  U  U3  1  0.000000  0.000000  0.000000  1.0
  O  O4  1  0.500000  0.000000  0.000000  1.0
  O  O5  1  0.000000  0.500000  0.000000  1.0
  O  O6  1  0.169916  0.169916  0.339832  1.0
  O  O7  1  0.830084  0.830084  0.660168  1.0
