# generated using pymatgen
data_MnNiO3
_symmetry_space_group_name_H-M   'P 1'
_cell_length_a   5.00370463
_cell_length_b   5.00370442
_cell_length_c   5.42952943
_cell_angle_alpha   62.56214867
_cell_angle_beta   62.56215309
_cell_angle_gamma   60.00000079
_symmetry_Int_Tables_number   1
_chemical_formula_structural   MnNiO3
_chemical_formula_sum   'Mn2 Ni2 O6'
_cell_volume   99.67950571
_cell_formula_units_Z   2
loop_
 _symmetry_equiv_pos_site_id
 _symmetry_equiv_pos_as_xyz
  1  'x, y, z'
loop_
 _atom_site_type_symbol
 _atom_site_label
 _atom_site_symmetry_multiplicity
 _atom_site_fract_x
 _atom_site_fract_y
 _atom_site_fract_z
 _atom_site_occupancy
  Mn  Mn1  1  0.843192  0.843192  0.470424  1.0
  Mn  Mn2  1  0.156808  0.156808  0.529576  1.0
  Ni  Ni3  1  0.645163  0.645163  0.064512  1.0
  Ni  Ni4  1  0.354837  0.354837  0.935488  1.0
  O  O5  1  0.051029  0.441154  0.736186  1.0
  O  O6  1  0.441154  0.771631  0.736186  1.0
  O  O7  1  0.771631  0.051029  0.736186  1.0
  O  O8  1  0.948971  0.558846  0.263814  1.0
  O  O9  1  0.558846  0.228369  0.263814  1.0
  O  O10  1  0.228369  0.948971  0.263814  1.0
