# generated using pymatgen
data_SrIn2Pd
_symmetry_space_group_name_H-M   'P 1'
_cell_length_a   4.60680995
_cell_length_b   5.94885720
_cell_length_c   8.01838318
_cell_angle_alpha   90.00000000
_cell_angle_beta   90.00000000
_cell_angle_gamma   112.78046508
_symmetry_Int_Tables_number   1
_chemical_formula_structural   SrIn2Pd
_chemical_formula_sum   'Sr2 In4 Pd2'
_cell_volume   202.60460697
_cell_formula_units_Z   2
loop_
 _symmetry_equiv_pos_site_id
 _symmetry_equiv_pos_as_xyz
  1  'x, y, z'
loop_
 _atom_site_type_symbol
 _atom_site_label
 _atom_site_symmetry_multiplicity
 _atom_site_fract_x
 _atom_site_fract_y
 _atom_site_fract_z
 _atom_site_occupancy
  Sr  Sr1  1  0.060752  0.121504  0.750000  1.0
  Sr  Sr2  1  0.939248  0.878496  0.250000  1.0
  In  In3  1  0.348383  0.696765  0.945627  1.0
  In  In4  1  0.651617  0.303235  0.054373  1.0
  In  In5  1  0.651617  0.303235  0.445627  1.0
  In  In6  1  0.348383  0.696765  0.554373  1.0
  Pd  Pd7  1  0.780035  0.560070  0.750000  1.0
  Pd  Pd8  1  0.219965  0.439930  0.250000  1.0
