# generated using pymatgen
data_Rb2CaH4
_symmetry_space_group_name_H-M   'P 1'
_cell_length_a   4.51311688
_cell_length_b   4.51311688
_cell_length_c   8.07712827
_cell_angle_alpha   106.22298556
_cell_angle_beta   106.22298553
_cell_angle_gamma   90.00000007
_symmetry_Int_Tables_number   1
_chemical_formula_structural   Rb2CaH4
_chemical_formula_sum   'Rb2 Ca1 H4'
_cell_volume   151.13152069
_cell_formula_units_Z   1
loop_
 _symmetry_equiv_pos_site_id
 _symmetry_equiv_pos_as_xyz
  1  'x, y, z'
loop_
 _atom_site_type_symbol
 _atom_site_label
 _atom_site_symmetry_multiplicity
 _atom_site_fract_x
 _atom_site_fract_y
 _atom_site_fract_z
 _atom_site_occupancy
  Rb  Rb1  1  0.648016  0.648016  0.296031  1.0
  Rb  Rb2  1  0.351984  0.351984  0.703969  1.0
  Ca  Ca3  1  0.000000  0.000000  0.000000  1.0
  H  H4  1  0.500000  0.000000  0.000000  1.0
  H  H5  1  0.000000  0.500000  0.000000  1.0
  H  H6  1  0.844531  0.844531  0.689062  1.0
  H  H7  1  0.155469  0.155469  0.310938  1.0
