# generated using pymatgen
data_CsTbS2
_symmetry_space_group_name_H-M   'P 1'
_cell_length_a   8.40948743
_cell_length_b   8.40948743
_cell_length_c   8.40948743
_cell_angle_alpha   28.40652762
_cell_angle_beta   28.40652758
_cell_angle_gamma   28.40652763
_symmetry_Int_Tables_number   1
_chemical_formula_structural   CsTbS2
_chemical_formula_sum   'Cs1 Tb1 S2'
_cell_volume   118.94495910
_cell_formula_units_Z   1
loop_
 _symmetry_equiv_pos_site_id
 _symmetry_equiv_pos_as_xyz
  1  'x, y, z'
loop_
 _atom_site_type_symbol
 _atom_site_label
 _atom_site_symmetry_multiplicity
 _atom_site_fract_x
 _atom_site_fract_y
 _atom_site_fract_z
 _atom_site_occupancy
  Cs  Cs1  1  0.000000  0.000000  0.000000  1.0
  Tb  Tb2  1  0.500000  0.500000  0.500000  1.0
  S  S3  1  0.772640  0.772640  0.772640  1.0
  S  S4  1  0.227360  0.227360  0.227360  1.0
