# generated using pymatgen
data_Sr2PdO3
_symmetry_space_group_name_H-M   'P 1'
_cell_length_a   3.58088102
_cell_length_b   4.04934891
_cell_length_c   6.99766475
_cell_angle_alpha   106.81603538
_cell_angle_beta   104.82470270
_cell_angle_gamma   89.99999994
_symmetry_Int_Tables_number   1
_chemical_formula_structural   Sr2PdO3
_chemical_formula_sum   'Sr2 Pd1 O3'
_cell_volume   93.59489840
_cell_formula_units_Z   1
loop_
 _symmetry_equiv_pos_site_id
 _symmetry_equiv_pos_as_xyz
  1  'x, y, z'
loop_
 _atom_site_type_symbol
 _atom_site_label
 _atom_site_symmetry_multiplicity
 _atom_site_fract_x
 _atom_site_fract_y
 _atom_site_fract_z
 _atom_site_occupancy
  Sr  Sr1  1  0.647018  0.647026  0.294036  1.0
  Sr  Sr2  1  0.352982  0.352974  0.705964  1.0
  Pd  Pd3  1  0.000000  0.000000  0.000000  1.0
  O  O4  1  0.839238  0.839267  0.678476  1.0
  O  O5  1  0.160762  0.160733  0.321524  1.0
  O  O6  1  0.000000  0.500000  0.000000  1.0
