# generated using pymatgen
data_CaIn2Pd
_symmetry_space_group_name_H-M   'P 1'
_cell_length_a   4.51121827
_cell_length_b   5.70682281
_cell_length_c   7.92415005
_cell_angle_alpha   90.00000000
_cell_angle_beta   90.00000000
_cell_angle_gamma   113.28142938
_symmetry_Int_Tables_number   1
_chemical_formula_structural   CaIn2Pd
_chemical_formula_sum   'Ca2 In4 Pd2'
_cell_volume   187.39384485
_cell_formula_units_Z   2
loop_
 _symmetry_equiv_pos_site_id
 _symmetry_equiv_pos_as_xyz
  1  'x, y, z'
loop_
 _atom_site_type_symbol
 _atom_site_label
 _atom_site_symmetry_multiplicity
 _atom_site_fract_x
 _atom_site_fract_y
 _atom_site_fract_z
 _atom_site_occupancy
  Ca  Ca1  1  0.065468  0.130937  0.750000  1.0
  Ca  Ca2  1  0.934532  0.869063  0.250000  1.0
  In  In3  1  0.355370  0.710739  0.946815  1.0
  In  In4  1  0.644630  0.289261  0.053185  1.0
  In  In5  1  0.644630  0.289261  0.446815  1.0
  In  In6  1  0.355370  0.710739  0.553185  1.0
  Pd  Pd7  1  0.782043  0.564087  0.750000  1.0
  Pd  Pd8  1  0.217957  0.435913  0.250000  1.0
