# generated using pymatgen
data_HfMg3
_symmetry_space_group_name_H-M   'P 1'
_cell_length_a   6.30997374
_cell_length_b   6.30997424
_cell_length_c   5.03101986
_cell_angle_alpha   90.00000000
_cell_angle_beta   90.00000000
_cell_angle_gamma   120.00000260
_symmetry_Int_Tables_number   1
_chemical_formula_structural   HfMg3
_chemical_formula_sum   'Hf2 Mg6'
_cell_volume   173.47695487
_cell_formula_units_Z   2
loop_
 _symmetry_equiv_pos_site_id
 _symmetry_equiv_pos_as_xyz
  1  'x, y, z'
loop_
 _atom_site_type_symbol
 _atom_site_label
 _atom_site_symmetry_multiplicity
 _atom_site_fract_x
 _atom_site_fract_y
 _atom_site_fract_z
 _atom_site_occupancy
  Hf  Hf1  1  0.666667  0.333332  0.249999  1.0
  Hf  Hf2  1  0.333333  0.666667  0.750000  1.0
  Mg  Mg3  1  0.167835  0.335670  0.249999  1.0
  Mg  Mg4  1  0.664329  0.832165  0.249999  1.0
  Mg  Mg5  1  0.167835  0.832165  0.249999  1.0
  Mg  Mg6  1  0.832166  0.167835  0.750000  1.0
  Mg  Mg7  1  0.335670  0.167835  0.750000  1.0
  Mg  Mg8  1  0.832164  0.664329  0.750000  1.0
