# generated using pymatgen
data_Nb2CS2
_symmetry_space_group_name_H-M   'P 1'
_cell_length_a   9.71685925
_cell_length_b   9.71685925
_cell_length_c   9.71685925
_cell_angle_alpha   19.45208788
_cell_angle_beta   19.45208786
_cell_angle_gamma   19.45208789
_symmetry_Int_Tables_number   1
_chemical_formula_structural   Nb2CS2
_chemical_formula_sum   'Nb2 C1 S2'
_cell_volume   88.96016825
_cell_formula_units_Z   1
loop_
 _symmetry_equiv_pos_site_id
 _symmetry_equiv_pos_as_xyz
  1  'x, y, z'
loop_
 _atom_site_type_symbol
 _atom_site_label
 _atom_site_symmetry_multiplicity
 _atom_site_fract_x
 _atom_site_fract_y
 _atom_site_fract_z
 _atom_site_occupancy
  Nb  Nb1  1  0.624756  0.624756  0.624756  1.0
  Nb  Nb2  1  0.375244  0.375244  0.375244  1.0
  C  C3  1  0.000000  0.000000  0.000000  1.0
  S  S4  1  0.766589  0.766589  0.766589  1.0
  S  S5  1  0.233411  0.233411  0.233411  1.0
