# generated using pymatgen
data_TaSe2
_symmetry_space_group_name_H-M   'P 1'
_cell_length_a   3.47488397
_cell_length_b   3.47488396
_cell_length_c   28.52158027
_cell_angle_alpha   90.00000000
_cell_angle_beta   90.00000000
_cell_angle_gamma   119.99999996
_symmetry_Int_Tables_number   1
_chemical_formula_structural   TaSe2
_chemical_formula_sum   'Ta4 Se8'
_cell_volume   298.25300655
_cell_formula_units_Z   4
loop_
 _symmetry_equiv_pos_site_id
 _symmetry_equiv_pos_as_xyz
  1  'x, y, z'
loop_
 _atom_site_type_symbol
 _atom_site_label
 _atom_site_symmetry_multiplicity
 _atom_site_fract_x
 _atom_site_fract_y
 _atom_site_fract_z
 _atom_site_occupancy
  Ta  Ta1  1  0.666667  0.333333  0.373935  1.0
  Ta  Ta2  1  0.333333  0.666667  0.873935  1.0
  Ta  Ta3  1  0.666667  0.333333  0.121408  1.0
  Ta  Ta4  1  0.333333  0.666667  0.621408  1.0
  Se  Se5  1  0.666667  0.333333  0.932776  1.0
  Se  Se6  1  0.333333  0.666667  0.432776  1.0
  Se  Se7  1  0.666667  0.333333  0.815071  1.0
  Se  Se8  1  0.333333  0.666667  0.315071  1.0
  Se  Se9  1  0.000000  0.000000  0.062563  1.0
  Se  Se10  1  0.000000  0.000000  0.562563  1.0
  Se  Se11  1  0.000000  0.000000  0.180248  1.0
  Se  Se12  1  0.000000  0.000000  0.680248  1.0
