# generated using pymatgen
data_PrSnPd
_symmetry_space_group_name_H-M   'P 1'
_cell_length_a   7.70392795
_cell_length_b   7.70392794
_cell_length_c   4.17076497
_cell_angle_alpha   90.00000000
_cell_angle_beta   90.00000000
_cell_angle_gamma   119.99999998
_symmetry_Int_Tables_number   1
_chemical_formula_structural   PrSnPd
_chemical_formula_sum   'Pr3 Sn3 Pd3'
_cell_volume   214.37333948
_cell_formula_units_Z   3
loop_
 _symmetry_equiv_pos_site_id
 _symmetry_equiv_pos_as_xyz
  1  'x, y, z'
loop_
 _atom_site_type_symbol
 _atom_site_label
 _atom_site_symmetry_multiplicity
 _atom_site_fract_x
 _atom_site_fract_y
 _atom_site_fract_z
 _atom_site_occupancy
  Pr  Pr1  1  0.000000  0.588571  0.000000  1.0
  Pr  Pr2  1  0.411429  0.411429  0.000000  1.0
  Pr  Pr3  1  0.588571  0.000000  0.000000  1.0
  Sn  Sn4  1  0.749244  0.749244  0.500000  1.0
  Sn  Sn5  1  0.000000  0.250756  0.500000  1.0
  Sn  Sn6  1  0.250756  0.000000  0.500000  1.0
  Pd  Pd7  1  0.666667  0.333333  0.500000  1.0
  Pd  Pd8  1  0.000000  0.000000  0.000000  1.0
  Pd  Pd9  1  0.333333  0.666667  0.500000  1.0
