# generated using pymatgen
data_MgSiO3
_symmetry_space_group_name_H-M   'P 1'
_cell_length_a   2.71635824
_cell_length_b   4.80212733
_cell_length_c   6.72953770
_cell_angle_alpha   90.00000000
_cell_angle_beta   90.00000000
_cell_angle_gamma   106.42910553
_symmetry_Int_Tables_number   1
_chemical_formula_structural   MgSiO3
_chemical_formula_sum   'Mg2 Si2 O6'
_cell_volume   84.19799043
_cell_formula_units_Z   2
loop_
 _symmetry_equiv_pos_site_id
 _symmetry_equiv_pos_as_xyz
  1  'x, y, z'
loop_
 _atom_site_type_symbol
 _atom_site_label
 _atom_site_symmetry_multiplicity
 _atom_site_fract_x
 _atom_site_fract_y
 _atom_site_fract_z
 _atom_site_occupancy
  Mg  Mg1  1  0.260670  0.521341  0.750000  1.0
  Mg  Mg2  1  0.739330  0.478659  0.250000  1.0
  Si  Si3  1  0.000000  0.000000  0.000000  1.0
  Si  Si4  1  0.000000  0.000000  0.500000  1.0
  O  O5  1  0.626094  0.252190  0.944707  1.0
  O  O6  1  0.373906  0.747810  0.055293  1.0
  O  O7  1  0.373906  0.747810  0.444707  1.0
  O  O8  1  0.626094  0.252190  0.555293  1.0
  O  O9  1  0.927205  0.854410  0.750000  1.0
  O  O10  1  0.072795  0.145590  0.250000  1.0
