# generated using pymatgen
data_Te2W
_symmetry_space_group_name_H-M   'P 1'
_cell_length_a   3.49794082
_cell_length_b   6.33827436
_cell_length_c   15.43185141
_cell_angle_alpha   90.00000000
_cell_angle_beta   90.00000000
_cell_angle_gamma   90.00000000
_symmetry_Int_Tables_number   1
_chemical_formula_structural   Te2W
_chemical_formula_sum   'Te8 W4'
_cell_volume   342.13816733
_cell_formula_units_Z   4
loop_
 _symmetry_equiv_pos_site_id
 _symmetry_equiv_pos_as_xyz
  1  'x, y, z'
loop_
 _atom_site_type_symbol
 _atom_site_label
 _atom_site_symmetry_multiplicity
 _atom_site_fract_x
 _atom_site_fract_y
 _atom_site_fract_z
 _atom_site_occupancy
  Te  Te1  1  0.500000  0.792218  0.911954  1.0
  Te  Te2  1  0.000000  0.207782  0.411954  1.0
  Te  Te3  1  0.500000  0.699499  0.371643  1.0
  Te  Te4  1  0.000000  0.300501  0.871643  1.0
  Te  Te5  1  0.000000  0.859275  0.643462  1.0
  Te  Te6  1  0.500000  0.140725  0.143462  1.0
  Te  Te7  1  0.000000  0.648666  0.103131  1.0
  Te  Te8  1  0.500000  0.351334  0.603131  1.0
  W  W9  1  0.500000  0.957715  0.514182  1.0
  W  W10  1  0.000000  0.042285  0.014182  1.0
  W  W11  1  0.500000  0.398618  0.000918  1.0
  W  W12  1  0.000000  0.601382  0.500918  1.0
