# generated using pymatgen
data_Mn5C2
_symmetry_space_group_name_H-M   'P 1'
_cell_length_a   4.47446973
_cell_length_b   4.99743260
_cell_length_c   6.22786209
_cell_angle_alpha   96.92080589
_cell_angle_beta   111.05291487
_cell_angle_gamma   89.99999998
_symmetry_Int_Tables_number   1
_chemical_formula_structural   Mn5C2
_chemical_formula_sum   'Mn10 C4'
_cell_volume   128.87673019
_cell_formula_units_Z   2
loop_
 _symmetry_equiv_pos_site_id
 _symmetry_equiv_pos_as_xyz
  1  'x, y, z'
loop_
 _atom_site_type_symbol
 _atom_site_label
 _atom_site_symmetry_multiplicity
 _atom_site_fract_x
 _atom_site_fract_y
 _atom_site_fract_z
 _atom_site_occupancy
  Mn  Mn1  1  0.373902  0.693460  0.567169  1.0
  Mn  Mn2  1  0.806733  0.806540  0.432831  1.0
  Mn  Mn3  1  0.626098  0.306540  0.432831  1.0
  Mn  Mn4  1  0.193267  0.193460  0.567169  1.0
  Mn  Mn5  1  0.569392  0.750000  0.000000  1.0
  Mn  Mn6  1  0.430608  0.250000  0.000000  1.0
  Mn  Mn7  1  0.810861  0.080774  0.799089  1.0
  Mn  Mn8  1  0.011772  0.419226  0.200911  1.0
  Mn  Mn9  1  0.189139  0.919226  0.200911  1.0
  Mn  Mn10  1  0.988228  0.580774  0.799089  1.0
  C  C11  1  0.569836  0.421384  0.773521  1.0
  C  C12  1  0.796316  0.078616  0.226479  1.0
  C  C13  1  0.430164  0.578616  0.226479  1.0
  C  C14  1  0.203684  0.921384  0.773521  1.0
