# generated using pymatgen
data_Ce(SiIr)2
_symmetry_space_group_name_H-M   'P 1'
_cell_length_a   4.10438759
_cell_length_b   4.10438798
_cell_length_c   5.84323873
_cell_angle_alpha   110.56123807
_cell_angle_beta   110.56124072
_cell_angle_gamma   89.99999525
_symmetry_Int_Tables_number   1
_chemical_formula_structural   Ce(SiIr)2
_chemical_formula_sum   'Ce1 Si2 Ir2'
_cell_volume   85.43502621
_cell_formula_units_Z   1
loop_
 _symmetry_equiv_pos_site_id
 _symmetry_equiv_pos_as_xyz
  1  'x, y, z'
loop_
 _atom_site_type_symbol
 _atom_site_label
 _atom_site_symmetry_multiplicity
 _atom_site_fract_x
 _atom_site_fract_y
 _atom_site_fract_z
 _atom_site_occupancy
  Ce  Ce1  1  0.000000  0.000000  0.000000  1.0
  Si  Si2  1  0.621768  0.621768  0.243536  1.0
  Si  Si3  1  0.378232  0.378232  0.756464  1.0
  Ir  Ir4  1  0.750000  0.250000  0.500000  1.0
  Ir  Ir5  1  0.250000  0.750000  0.500000  1.0
