# generated using pymatgen
data_Rb2PdCl6
_symmetry_space_group_name_H-M   'P 1'
_cell_length_a   7.19933066
_cell_length_b   7.19933066
_cell_length_c   7.19933066
_cell_angle_alpha   60.00000001
_cell_angle_beta   59.99999999
_cell_angle_gamma   59.99999998
_symmetry_Int_Tables_number   1
_chemical_formula_structural   Rb2PdCl6
_chemical_formula_sum   'Rb2 Pd1 Cl6'
_cell_volume   263.85259185
_cell_formula_units_Z   1
loop_
 _symmetry_equiv_pos_site_id
 _symmetry_equiv_pos_as_xyz
  1  'x, y, z'
loop_
 _atom_site_type_symbol
 _atom_site_label
 _atom_site_symmetry_multiplicity
 _atom_site_fract_x
 _atom_site_fract_y
 _atom_site_fract_z
 _atom_site_occupancy
  Rb  Rb1  1  0.750000  0.750000  0.750000  1.0
  Rb  Rb2  1  0.250000  0.250000  0.250000  1.0
  Pd  Pd3  1  0.000000  0.000000  0.000000  1.0
  Cl  Cl4  1  0.231134  0.768866  0.768866  1.0
  Cl  Cl5  1  0.231134  0.768866  0.231134  1.0
  Cl  Cl6  1  0.768866  0.231134  0.768866  1.0
  Cl  Cl7  1  0.768866  0.231134  0.231134  1.0
  Cl  Cl8  1  0.768866  0.768866  0.231134  1.0
  Cl  Cl9  1  0.231134  0.231134  0.768866  1.0
