# generated using pymatgen
data_BMo2C
_symmetry_space_group_name_H-M   'P 1'
_cell_length_a   3.07699773
_cell_length_b   3.11537913
_cell_length_c   8.90755562
_cell_angle_alpha   100.07125835
_cell_angle_beta   90.00000000
_cell_angle_gamma   90.00000000
_symmetry_Int_Tables_number   1
_chemical_formula_structural   BMo2C
_chemical_formula_sum   'B2 Mo4 C2'
_cell_volume   84.07221665
_cell_formula_units_Z   2
loop_
 _symmetry_equiv_pos_site_id
 _symmetry_equiv_pos_as_xyz
  1  'x, y, z'
loop_
 _atom_site_type_symbol
 _atom_site_label
 _atom_site_symmetry_multiplicity
 _atom_site_fract_x
 _atom_site_fract_y
 _atom_site_fract_z
 _atom_site_occupancy
  B  B1  1  0.750000  0.472053  0.944107  1.0
  B  B2  1  0.250000  0.527947  0.055893  1.0
  Mo  Mo3  1  0.250000  0.685461  0.370921  1.0
  Mo  Mo4  1  0.750000  0.314540  0.629079  1.0
  Mo  Mo5  1  0.250000  0.928112  0.856224  1.0
  Mo  Mo6  1  0.750000  0.071888  0.143776  1.0
  C  C7  1  0.750000  0.191222  0.382443  1.0
  C  C8  1  0.250000  0.808778  0.617557  1.0
