# generated using pymatgen
data_Sr(FeAs)2
_symmetry_space_group_name_H-M   'P 1'
_cell_length_a   3.97298074
_cell_length_b   3.97298074
_cell_length_c   6.45523340
_cell_angle_alpha   107.92268252
_cell_angle_beta   107.92268249
_cell_angle_gamma   90.00000006
_symmetry_Int_Tables_number   1
_chemical_formula_structural   Sr(FeAs)2
_chemical_formula_sum   'Sr1 Fe2 As2'
_cell_volume   91.73779123
_cell_formula_units_Z   1
loop_
 _symmetry_equiv_pos_site_id
 _symmetry_equiv_pos_as_xyz
  1  'x, y, z'
loop_
 _atom_site_type_symbol
 _atom_site_label
 _atom_site_symmetry_multiplicity
 _atom_site_fract_x
 _atom_site_fract_y
 _atom_site_fract_z
 _atom_site_occupancy
  Sr  Sr1  1  0.000000  0.000000  0.000000  1.0
  Fe  Fe2  1  0.750000  0.250000  0.500000  1.0
  Fe  Fe3  1  0.250000  0.750000  0.500000  1.0
  As  As4  1  0.647258  0.647258  0.294516  1.0
  As  As5  1  0.352742  0.352742  0.705484  1.0
