# generated using pymatgen
data_Fe5Si3
_symmetry_space_group_name_H-M   'P 1'
_cell_length_a   6.69839998
_cell_length_b   6.69840044
_cell_length_c   4.68631113
_cell_angle_alpha   90.00000000
_cell_angle_beta   90.00000000
_cell_angle_gamma   119.99999772
_symmetry_Int_Tables_number   1
_chemical_formula_structural   Fe5Si3
_chemical_formula_sum   'Fe10 Si6'
_cell_volume   182.09748341
_cell_formula_units_Z   2
loop_
 _symmetry_equiv_pos_site_id
 _symmetry_equiv_pos_as_xyz
  1  'x, y, z'
loop_
 _atom_site_type_symbol
 _atom_site_label
 _atom_site_symmetry_multiplicity
 _atom_site_fract_x
 _atom_site_fract_y
 _atom_site_fract_z
 _atom_site_occupancy
  Fe  Fe1  1  0.000000  0.761438  0.750000  1.0
  Fe  Fe2  1  0.000000  0.238562  0.250000  1.0
  Fe  Fe3  1  0.761438  0.761438  0.250000  1.0
  Fe  Fe4  1  0.761438  0.000000  0.750000  1.0
  Fe  Fe5  1  0.238562  0.238562  0.750000  1.0
  Fe  Fe6  1  0.238562  0.000000  0.250000  1.0
  Fe  Fe7  1  0.333333  0.666667  0.500000  1.0
  Fe  Fe8  1  0.666667  0.333333  0.000000  1.0
  Fe  Fe9  1  0.666667  0.333333  0.500000  1.0
  Fe  Fe10  1  0.333333  0.666667  0.000000  1.0
  Si  Si11  1  0.395401  0.000000  0.750000  1.0
  Si  Si12  1  0.395401  0.395401  0.250000  1.0
  Si  Si13  1  0.000000  0.604599  0.250000  1.0
  Si  Si14  1  0.000000  0.395401  0.750000  1.0
  Si  Si15  1  0.604599  0.604599  0.750000  1.0
  Si  Si16  1  0.604599  0.000000  0.250000  1.0
