# generated using pymatgen
data_SrZnBi2
_symmetry_space_group_name_H-M   'P 1'
_cell_length_a   4.63437667
_cell_length_b   4.63437667
_cell_length_c   11.78260359
_cell_angle_alpha   101.34181923
_cell_angle_beta   101.34181924
_cell_angle_gamma   90.00000004
_symmetry_Int_Tables_number   1
_chemical_formula_structural   SrZnBi2
_chemical_formula_sum   'Sr2 Zn2 Bi4'
_cell_volume   243.07595839
_cell_formula_units_Z   2
loop_
 _symmetry_equiv_pos_site_id
 _symmetry_equiv_pos_as_xyz
  1  'x, y, z'
loop_
 _atom_site_type_symbol
 _atom_site_label
 _atom_site_symmetry_multiplicity
 _atom_site_fract_x
 _atom_site_fract_y
 _atom_site_fract_z
 _atom_site_occupancy
  Sr  Sr1  1  0.878849  0.878849  0.757698  1.0
  Sr  Sr2  1  0.121151  0.121151  0.242302  1.0
  Zn  Zn3  1  0.250000  0.750000  0.500000  1.0
  Zn  Zn4  1  0.750000  0.250000  0.500000  1.0
  Bi  Bi5  1  0.328230  0.328230  0.656461  1.0
  Bi  Bi6  1  0.671770  0.671770  0.343539  1.0
  Bi  Bi7  1  0.500000  0.000000  0.000000  1.0
  Bi  Bi8  1  0.000000  0.500000  0.000000  1.0
