# generated using pymatgen
data_Mg13Ir3
_symmetry_space_group_name_H-M   'P 1'
_cell_length_a   9.71820239
_cell_length_b   9.71820239
_cell_length_c   9.71820239
_cell_angle_alpha   111.88062894
_cell_angle_beta   111.88062893
_cell_angle_gamma   111.88062893
_symmetry_Int_Tables_number   1
_chemical_formula_structural   Mg13Ir3
_chemical_formula_sum   'Mg26 Ir6'
_cell_volume   635.76801361
_cell_formula_units_Z   2
loop_
 _symmetry_equiv_pos_site_id
 _symmetry_equiv_pos_as_xyz
  1  'x, y, z'
loop_
 _atom_site_type_symbol
 _atom_site_label
 _atom_site_symmetry_multiplicity
 _atom_site_fract_x
 _atom_site_fract_y
 _atom_site_fract_z
 _atom_site_occupancy
  Mg  Mg1  1  0.000000  0.500000  0.000000  1.0
  Mg  Mg2  1  0.500000  0.000000  0.000000  1.0
  Mg  Mg3  1  0.000000  0.000000  0.500000  1.0
  Mg  Mg4  1  0.500000  0.000000  0.500000  1.0
  Mg  Mg5  1  0.000000  0.500000  0.500000  1.0
  Mg  Mg6  1  0.500000  0.500000  0.000000  1.0
  Mg  Mg7  1  0.881151  0.618849  0.250000  1.0
  Mg  Mg8  1  0.250000  0.881151  0.618849  1.0
  Mg  Mg9  1  0.618849  0.250000  0.881151  1.0
  Mg  Mg10  1  0.118849  0.381151  0.750000  1.0
  Mg  Mg11  1  0.750000  0.118849  0.381151  1.0
  Mg  Mg12  1  0.381151  0.750000  0.118849  1.0
  Mg  Mg13  1  0.250000  0.250000  0.250000  1.0
  Mg  Mg14  1  0.750000  0.750000  0.750000  1.0
  Mg  Mg15  1  0.403002  0.610123  0.722180  1.0
  Mg  Mg16  1  0.722180  0.403002  0.610123  1.0
  Mg  Mg17  1  0.610123  0.722180  0.403002  1.0
  Mg  Mg18  1  0.889877  0.096998  0.777820  1.0
  Mg  Mg19  1  0.777820  0.889877  0.096998  1.0
  Mg  Mg20  1  0.096998  0.777820  0.889877  1.0
  Mg  Mg21  1  0.596998  0.389877  0.277820  1.0
  Mg  Mg22  1  0.277820  0.596998  0.389877  1.0
  Mg  Mg23  1  0.389877  0.277820  0.596998  1.0
  Mg  Mg24  1  0.110123  0.903002  0.222180  1.0
  Mg  Mg25  1  0.222180  0.110123  0.903002  1.0
  Mg  Mg26  1  0.903002  0.222180  0.110123  1.0
  Ir  Ir27  1  0.922271  0.750000  0.577729  1.0
  Ir  Ir28  1  0.750000  0.577729  0.922271  1.0
  Ir  Ir29  1  0.577729  0.922271  0.750000  1.0
  Ir  Ir30  1  0.077729  0.250000  0.422271  1.0
  Ir  Ir31  1  0.250000  0.422271  0.077729  1.0
  Ir  Ir32  1  0.422271  0.077729  0.250000  1.0
