# generated using pymatgen
data_Sr(SiAu)2
_symmetry_space_group_name_H-M   'P 1'
_cell_length_a   4.46220308
_cell_length_b   4.46220308
_cell_length_c   6.00562527
_cell_angle_alpha   111.80827674
_cell_angle_beta   111.80827673
_cell_angle_gamma   89.99999993
_symmetry_Int_Tables_number   1
_chemical_formula_structural   Sr(SiAu)2
_chemical_formula_sum   'Sr1 Si2 Au2'
_cell_volume   101.74614325
_cell_formula_units_Z   1
loop_
 _symmetry_equiv_pos_site_id
 _symmetry_equiv_pos_as_xyz
  1  'x, y, z'
loop_
 _atom_site_type_symbol
 _atom_site_label
 _atom_site_symmetry_multiplicity
 _atom_site_fract_x
 _atom_site_fract_y
 _atom_site_fract_z
 _atom_site_occupancy
  Sr  Sr1  1  0.000000  0.000000  0.000000  1.0
  Si  Si2  1  0.616634  0.616634  0.233267  1.0
  Si  Si3  1  0.383366  0.383366  0.766733  1.0
  Au  Au4  1  0.250000  0.750000  0.500000  1.0
  Au  Au5  1  0.750000  0.250000  0.500000  1.0
