# generated using pymatgen
data_TaPt3
_symmetry_space_group_name_H-M   'P 1'
_cell_length_a   4.61417194
_cell_length_b   4.93414852
_cell_length_c   5.61376897
_cell_angle_alpha   90.00000000
_cell_angle_beta   90.00000000
_cell_angle_gamma   90.00000000
_symmetry_Int_Tables_number   1
_chemical_formula_structural   TaPt3
_chemical_formula_sum   'Ta2 Pt6'
_cell_volume   127.80873231
_cell_formula_units_Z   2
loop_
 _symmetry_equiv_pos_site_id
 _symmetry_equiv_pos_as_xyz
  1  'x, y, z'
loop_
 _atom_site_type_symbol
 _atom_site_label
 _atom_site_symmetry_multiplicity
 _atom_site_fract_x
 _atom_site_fract_y
 _atom_site_fract_z
 _atom_site_occupancy
  Ta  Ta1  1  0.750000  0.339628  0.750000  1.0
  Ta  Ta2  1  0.250000  0.660372  0.250000  1.0
  Pt  Pt3  1  0.250000  0.166212  0.500127  1.0
  Pt  Pt4  1  0.750000  0.833788  0.499873  1.0
  Pt  Pt5  1  0.250000  0.166212  0.999873  1.0
  Pt  Pt6  1  0.750000  0.833788  0.000127  1.0
  Pt  Pt7  1  0.250000  0.658286  0.750000  1.0
  Pt  Pt8  1  0.750000  0.341714  0.250000  1.0
