# generated using pymatgen
data_Ti3Pt5
_symmetry_space_group_name_H-M   'P 1'
_cell_length_a   5.49383935
_cell_length_b   7.43133001
_cell_length_c   7.43133001
_cell_angle_alpha   67.49344301
_cell_angle_beta   68.30655946
_cell_angle_gamma   68.30655947
_symmetry_Int_Tables_number   1
_chemical_formula_structural   Ti3Pt5
_chemical_formula_sum   'Ti6 Pt10'
_cell_volume   251.06930091
_cell_formula_units_Z   2
loop_
 _symmetry_equiv_pos_site_id
 _symmetry_equiv_pos_as_xyz
  1  'x, y, z'
loop_
 _atom_site_type_symbol
 _atom_site_label
 _atom_site_symmetry_multiplicity
 _atom_site_fract_x
 _atom_site_fract_y
 _atom_site_fract_z
 _atom_site_occupancy
  Ti  Ti1  1  0.145669  0.644830  0.644830  1.0
  Ti  Ti2  1  0.435329  0.855170  0.855170  1.0
  Ti  Ti3  1  0.854331  0.355170  0.355170  1.0
  Ti  Ti4  1  0.564671  0.144830  0.144830  1.0
  Ti  Ti5  1  0.000000  0.250000  0.750000  1.0
  Ti  Ti6  1  0.000000  0.750000  0.250000  1.0
  Pt  Pt7  1  0.108829  0.103924  0.103924  1.0
  Pt  Pt8  1  0.316676  0.396076  0.396076  1.0
  Pt  Pt9  1  0.891171  0.896076  0.896076  1.0
  Pt  Pt10  1  0.683324  0.603924  0.603924  1.0
  Pt  Pt11  1  0.756899  0.493101  0.993101  1.0
  Pt  Pt12  1  0.243101  0.006899  0.506899  1.0
  Pt  Pt13  1  0.243101  0.506899  0.006899  1.0
  Pt  Pt14  1  0.756899  0.993101  0.493101  1.0
  Pt  Pt15  1  0.500000  0.750000  0.250000  1.0
  Pt  Pt16  1  0.500000  0.250000  0.750000  1.0
