# generated using pymatgen
data_CdAu
_symmetry_space_group_name_H-M   'P 1'
_cell_length_a   8.22227111
_cell_length_b   8.22227111
_cell_length_c   6.03313254
_cell_angle_alpha   90.00000000
_cell_angle_beta   90.00000000
_cell_angle_gamma   120.00000004
_symmetry_Int_Tables_number   1
_chemical_formula_structural   CdAu
_chemical_formula_sum   'Cd9 Au9'
_cell_volume   353.22959458
_cell_formula_units_Z   9
loop_
 _symmetry_equiv_pos_site_id
 _symmetry_equiv_pos_as_xyz
  1  'x, y, z'
loop_
 _atom_site_type_symbol
 _atom_site_label
 _atom_site_symmetry_multiplicity
 _atom_site_fract_x
 _atom_site_fract_y
 _atom_site_fract_z
 _atom_site_occupancy
  Cd  Cd1  1  0.333320  0.312874  0.211357  1.0
  Cd  Cd2  1  0.979554  0.666680  0.211357  1.0
  Cd  Cd3  1  0.687126  0.020446  0.211357  1.0
  Cd  Cd4  1  0.644745  0.666648  0.917391  1.0
  Cd  Cd5  1  0.021903  0.355255  0.917391  1.0
  Cd  Cd6  1  0.333352  0.978097  0.917391  1.0
  Cd  Cd7  1  0.666667  0.333333  0.497883  1.0
  Cd  Cd8  1  0.333333  0.666667  0.648148  1.0
  Cd  Cd9  1  0.000000  0.000000  0.497653  1.0
  Au  Au10  1  0.333292  0.308643  0.711248  1.0
  Au  Au11  1  0.975351  0.666708  0.711248  1.0
  Au  Au12  1  0.691357  0.024649  0.711248  1.0
  Au  Au13  1  0.645107  0.666629  0.419708  1.0
  Au  Au14  1  0.021522  0.354893  0.419708  1.0
  Au  Au15  1  0.333371  0.978478  0.419708  1.0
  Au  Au16  1  0.666667  0.333333  0.986768  1.0
  Au  Au17  1  0.333333  0.666667  0.161801  1.0
  Au  Au18  1  0.000000  0.000000  0.986639  1.0
