# generated using pymatgen
data_Sr(AgSn)2
_symmetry_space_group_name_H-M   'P 1'
_cell_length_a   4.76690366
_cell_length_b   4.76690367
_cell_length_c   6.73361990
_cell_angle_alpha   110.72989825
_cell_angle_beta   110.72989826
_cell_angle_gamma   89.99999998
_symmetry_Int_Tables_number   1
_chemical_formula_structural   Sr(AgSn)2
_chemical_formula_sum   'Sr1 Ag2 Sn2'
_cell_volume   132.45981024
_cell_formula_units_Z   1
loop_
 _symmetry_equiv_pos_site_id
 _symmetry_equiv_pos_as_xyz
  1  'x, y, z'
loop_
 _atom_site_type_symbol
 _atom_site_label
 _atom_site_symmetry_multiplicity
 _atom_site_fract_x
 _atom_site_fract_y
 _atom_site_fract_z
 _atom_site_occupancy
  Sr  Sr1  1  0.000000  0.000000  0.000000  1.0
  Ag  Ag2  1  0.750000  0.250000  0.500000  1.0
  Ag  Ag3  1  0.250000  0.750000  0.500000  1.0
  Sn  Sn4  1  0.377669  0.377669  0.755337  1.0
  Sn  Sn5  1  0.622331  0.622331  0.244663  1.0
