# generated using pymatgen
data_Li2SO4
_symmetry_space_group_name_H-M   'P 1'
_cell_length_a   5.02946244
_cell_length_b   8.38130137
_cell_length_c   8.58567855
_cell_angle_alpha   107.66707575
_cell_angle_beta   90.00000000
_cell_angle_gamma   90.00000000
_symmetry_Int_Tables_number   1
_chemical_formula_structural   Li2SO4
_chemical_formula_sum   'Li8 S4 O16'
_cell_volume   344.84650013
_cell_formula_units_Z   4
loop_
 _symmetry_equiv_pos_site_id
 _symmetry_equiv_pos_as_xyz
  1  'x, y, z'
loop_
 _atom_site_type_symbol
 _atom_site_label
 _atom_site_symmetry_multiplicity
 _atom_site_fract_x
 _atom_site_fract_y
 _atom_site_fract_z
 _atom_site_occupancy
  Li  Li1  1  0.072444  0.934784  0.128961  1.0
  Li  Li2  1  0.572444  0.565216  0.871039  1.0
  Li  Li3  1  0.927556  0.065216  0.871039  1.0
  Li  Li4  1  0.427556  0.434784  0.128961  1.0
  Li  Li5  1  0.067607  0.694983  0.378681  1.0
  Li  Li6  1  0.567607  0.805017  0.621319  1.0
  Li  Li7  1  0.932393  0.305017  0.621319  1.0
  Li  Li8  1  0.432393  0.194983  0.378681  1.0
  S  S9  1  0.561144  0.808744  0.251416  1.0
  S  S10  1  0.438856  0.191256  0.748584  1.0
  S  S11  1  0.938856  0.308744  0.251416  1.0
  S  S12  1  0.061144  0.691256  0.748584  1.0
  O  O13  1  0.446520  0.772780  0.397804  1.0
  O  O14  1  0.553480  0.227220  0.602196  1.0
  O  O15  1  0.946520  0.727220  0.602196  1.0
  O  O16  1  0.353093  0.663513  0.726536  1.0
  O  O17  1  0.646907  0.336487  0.273464  1.0
  O  O18  1  0.146907  0.163513  0.726536  1.0
  O  O19  1  0.066904  0.460388  0.228823  1.0
  O  O20  1  0.853093  0.836487  0.273464  1.0
  O  O21  1  0.566904  0.039612  0.771177  1.0
  O  O22  1  0.933096  0.539612  0.771177  1.0
  O  O23  1  0.995982  0.162139  0.106168  1.0
  O  O24  1  0.433096  0.960388  0.228823  1.0
  O  O25  1  0.504018  0.662139  0.106168  1.0
  O  O26  1  0.004018  0.837861  0.893832  1.0
  O  O27  1  0.495982  0.337861  0.893832  1.0
  O  O28  1  0.053480  0.272780  0.397804  1.0
