# generated using pymatgen
data_MnCoO3
_symmetry_space_group_name_H-M   'P 1'
_cell_length_a   5.03481352
_cell_length_b   5.03481385
_cell_length_c   5.47246119
_cell_angle_alpha   62.61200737
_cell_angle_beta   62.61201585
_cell_angle_gamma   59.99999405
_symmetry_Int_Tables_number   1
_chemical_formula_structural   MnCoO3
_chemical_formula_sum   'Mn2 Co2 O6'
_cell_volume   101.78808352
_cell_formula_units_Z   2
loop_
 _symmetry_equiv_pos_site_id
 _symmetry_equiv_pos_as_xyz
  1  'x, y, z'
loop_
 _atom_site_type_symbol
 _atom_site_label
 _atom_site_symmetry_multiplicity
 _atom_site_fract_x
 _atom_site_fract_y
 _atom_site_fract_z
 _atom_site_occupancy
  Mn  Mn1  1  0.843119  0.843119  0.470644  1.0
  Mn  Mn2  1  0.156881  0.156881  0.529356  1.0
  Co  Co3  1  0.642409  0.642409  0.072773  1.0
  Co  Co4  1  0.357591  0.357591  0.927227  1.0
  O  O5  1  0.050669  0.441087  0.735404  1.0
  O  O6  1  0.441087  0.772841  0.735404  1.0
  O  O7  1  0.772841  0.050669  0.735404  1.0
  O  O8  1  0.949331  0.558913  0.264596  1.0
  O  O9  1  0.558913  0.227159  0.264596  1.0
  O  O10  1  0.227159  0.949331  0.264596  1.0
