# generated using pymatgen
data_Cu3Ge
_symmetry_space_group_name_H-M   'P 1'
_cell_length_a   4.55238499
_cell_length_b   4.22801946
_cell_length_c   5.31311577
_cell_angle_alpha   90.00000000
_cell_angle_beta   90.00000000
_cell_angle_gamma   90.00000000
_symmetry_Int_Tables_number   1
_chemical_formula_structural   Cu3Ge
_chemical_formula_sum   'Cu6 Ge2'
_cell_volume   102.26458007
_cell_formula_units_Z   2
loop_
 _symmetry_equiv_pos_site_id
 _symmetry_equiv_pos_as_xyz
  1  'x, y, z'
loop_
 _atom_site_type_symbol
 _atom_site_label
 _atom_site_symmetry_multiplicity
 _atom_site_fract_x
 _atom_site_fract_y
 _atom_site_fract_z
 _atom_site_occupancy
  Cu  Cu1  1  0.168341  0.750000  0.250000  1.0
  Cu  Cu2  1  0.831659  0.250000  0.750000  1.0
  Cu  Cu3  1  0.334964  0.250000  0.501001  1.0
  Cu  Cu4  1  0.334964  0.250000  0.998999  1.0
  Cu  Cu5  1  0.665036  0.750000  0.498999  1.0
  Cu  Cu6  1  0.665036  0.750000  0.001001  1.0
  Ge  Ge7  1  0.826503  0.250000  0.250000  1.0
  Ge  Ge8  1  0.173497  0.750000  0.750000  1.0
