# generated using pymatgen
data_MgHg5
_symmetry_space_group_name_H-M   'P 1'
_cell_length_a   5.60898839
_cell_length_b   5.60898951
_cell_length_c   6.45220320
_cell_angle_alpha   115.76344447
_cell_angle_beta   64.23655048
_cell_angle_gamma   119.99998205
_symmetry_Int_Tables_number   1
_chemical_formula_structural   MgHg5
_chemical_formula_sum   'Mg1 Hg5'
_cell_volume   152.05026859
_cell_formula_units_Z   1
loop_
 _symmetry_equiv_pos_site_id
 _symmetry_equiv_pos_as_xyz
  1  'x, y, z'
loop_
 _atom_site_type_symbol
 _atom_site_label
 _atom_site_symmetry_multiplicity
 _atom_site_fract_x
 _atom_site_fract_y
 _atom_site_fract_z
 _atom_site_occupancy
  Mg  Mg1  1  0.833333  0.500000  0.500001  1.0
  Hg  Hg2  1  0.991084  0.000000  0.999999  1.0
  Hg  Hg3  1  0.675581  0.342246  0.999999  1.0
  Hg  Hg4  1  0.333335  0.657753  0.000000  1.0
  Hg  Hg5  1  0.171424  0.161910  0.485732  1.0
  Hg  Hg6  1  0.495243  0.838087  0.514268  1.0
