# generated using pymatgen
data_Rb2PtS2
_symmetry_space_group_name_H-M   'P 1'
_cell_length_a   3.69121483
_cell_length_b   6.49017177
_cell_length_c   6.49017177
_cell_angle_alpha   69.28941205
_cell_angle_beta   73.47883099
_cell_angle_gamma   73.47883102
_symmetry_Int_Tables_number   1
_chemical_formula_structural   Rb2PtS2
_chemical_formula_sum   'Rb2 Pt1 S2'
_cell_volume   136.47060040
_cell_formula_units_Z   1
loop_
 _symmetry_equiv_pos_site_id
 _symmetry_equiv_pos_as_xyz
  1  'x, y, z'
loop_
 _atom_site_type_symbol
 _atom_site_label
 _atom_site_symmetry_multiplicity
 _atom_site_fract_x
 _atom_site_fract_y
 _atom_site_fract_z
 _atom_site_occupancy
  Rb  Rb1  1  0.807384  0.692616  0.692616  1.0
  Rb  Rb2  1  0.192616  0.307384  0.307384  1.0
  Pt  Pt3  1  0.000000  0.000000  0.000000  1.0
  S  S4  1  0.500000  0.793137  0.206863  1.0
  S  S5  1  0.500000  0.206863  0.793137  1.0
