# generated using pymatgen
data_Al2B2Ru3
_symmetry_space_group_name_H-M   'P 1'
_cell_length_a   2.94262062
_cell_length_b   3.03895221
_cell_length_c   9.04175518
_cell_angle_alpha   99.67452011
_cell_angle_beta   90.00000000
_cell_angle_gamma   90.00000000
_symmetry_Int_Tables_number   1
_chemical_formula_structural   Al2B2Ru3
_chemical_formula_sum   'Al2 B2 Ru3'
_cell_volume   79.70583979
_cell_formula_units_Z   1
loop_
 _symmetry_equiv_pos_site_id
 _symmetry_equiv_pos_as_xyz
  1  'x, y, z'
loop_
 _atom_site_type_symbol
 _atom_site_label
 _atom_site_symmetry_multiplicity
 _atom_site_fract_x
 _atom_site_fract_y
 _atom_site_fract_z
 _atom_site_occupancy
  Al  Al1  1  0.500000  0.579035  0.158070  1.0
  Al  Al2  1  0.500000  0.420965  0.841930  1.0
  B  B3  1  0.500000  0.722358  0.444716  1.0
  B  B4  1  0.500000  0.277642  0.555284  1.0
  Ru  Ru5  1  0.000000  0.825048  0.650096  1.0
  Ru  Ru6  1  0.000000  0.000000  0.000000  1.0
  Ru  Ru7  1  0.000000  0.174952  0.349904  1.0
