# generated using pymatgen
data_LiHoSe2
_symmetry_space_group_name_H-M   'P 1'
_cell_length_a   8.02061766
_cell_length_b   10.66284841
_cell_length_c   7.02738722
_cell_angle_alpha   29.12673101
_cell_angle_beta   55.20314150
_cell_angle_gamma   41.21850202
_symmetry_Int_Tables_number   1
_chemical_formula_structural   LiHoSe2
_chemical_formula_sum   'Li2 Ho2 Se4'
_cell_volume   185.63118948
_cell_formula_units_Z   2
loop_
 _symmetry_equiv_pos_site_id
 _symmetry_equiv_pos_as_xyz
  1  'x, y, z'
loop_
 _atom_site_type_symbol
 _atom_site_label
 _atom_site_symmetry_multiplicity
 _atom_site_fract_x
 _atom_site_fract_y
 _atom_site_fract_z
 _atom_site_occupancy
  Li  Li1  1  0.000002  0.000000  0.000000  1.0
  Li  Li2  1  0.749998  0.500000  0.000000  1.0
  Ho  Ho3  1  0.250015  0.500000  0.000000  1.0
  Ho  Ho4  1  0.499985  0.000000  0.000000  1.0
  Se  Se5  1  0.253511  0.000135  0.492721  1.0
  Se  Se6  1  0.746503  0.999865  0.507279  1.0
  Se  Se7  1  0.496489  0.499864  0.507279  1.0
  Se  Se8  1  0.003497  0.500136  0.492721  1.0
