# generated using pymatgen
data_Ba(CuO)2
_symmetry_space_group_name_H-M   'P 1'
_cell_length_a   5.79748461
_cell_length_b   5.79748461
_cell_length_c   6.52359170
_cell_angle_alpha   116.38160582
_cell_angle_beta   116.38160578
_cell_angle_gamma   90.00000001
_symmetry_Int_Tables_number   1
_chemical_formula_structural   Ba(CuO)2
_chemical_formula_sum   'Ba2 Cu4 O4'
_cell_volume   170.56239983
_cell_formula_units_Z   2
loop_
 _symmetry_equiv_pos_site_id
 _symmetry_equiv_pos_as_xyz
  1  'x, y, z'
loop_
 _atom_site_type_symbol
 _atom_site_label
 _atom_site_symmetry_multiplicity
 _atom_site_fract_x
 _atom_site_fract_y
 _atom_site_fract_z
 _atom_site_occupancy
  Ba  Ba1  1  0.875000  0.125000  0.750000  1.0
  Ba  Ba2  1  0.125000  0.875000  0.250000  1.0
  Cu  Cu3  1  0.500000  0.500000  0.500000  1.0
  Cu  Cu4  1  0.500000  0.000000  0.000000  1.0
  Cu  Cu5  1  0.000000  0.500000  0.500000  1.0
  Cu  Cu6  1  0.500000  0.500000  0.000000  1.0
  O  O7  1  0.612922  0.862922  0.225844  1.0
  O  O8  1  0.862922  0.612922  0.725844  1.0
  O  O9  1  0.387078  0.137078  0.774156  1.0
  O  O10  1  0.137078  0.387078  0.274156  1.0
