# generated using pymatgen
data_BaCuSeF
_symmetry_space_group_name_H-M   'P 1'
_cell_length_a   4.26353272
_cell_length_b   4.26353272
_cell_length_c   9.24654682
_cell_angle_alpha   90.00000000
_cell_angle_beta   90.00000000
_cell_angle_gamma   90.00000000
_symmetry_Int_Tables_number   1
_chemical_formula_structural   BaCuSeF
_chemical_formula_sum   'Ba2 Cu2 Se2 F2'
_cell_volume   168.08105820
_cell_formula_units_Z   2
loop_
 _symmetry_equiv_pos_site_id
 _symmetry_equiv_pos_as_xyz
  1  'x, y, z'
loop_
 _atom_site_type_symbol
 _atom_site_label
 _atom_site_symmetry_multiplicity
 _atom_site_fract_x
 _atom_site_fract_y
 _atom_site_fract_z
 _atom_site_occupancy
  Ba  Ba1  1  0.750000  0.750000  0.672423  1.0
  Ba  Ba2  1  0.250000  0.250000  0.327577  1.0
  Cu  Cu3  1  0.250000  0.750000  0.000000  1.0
  Cu  Cu4  1  0.750000  0.250000  0.000000  1.0
  Se  Se5  1  0.750000  0.750000  0.151155  1.0
  Se  Se6  1  0.250000  0.250000  0.848845  1.0
  F  F7  1  0.750000  0.250000  0.500000  1.0
  F  F8  1  0.250000  0.750000  0.500000  1.0
