# generated using pymatgen
data_KCuS
_symmetry_space_group_name_H-M   'P 1'
_cell_length_a   5.31486252
_cell_length_b   6.29872432
_cell_length_c   10.71625287
_cell_angle_alpha   90.00000000
_cell_angle_beta   90.00000000
_cell_angle_gamma   90.00000000
_symmetry_Int_Tables_number   1
_chemical_formula_structural   KCuS
_chemical_formula_sum   'K4 Cu4 S4'
_cell_volume   358.74643074
_cell_formula_units_Z   4
loop_
 _symmetry_equiv_pos_site_id
 _symmetry_equiv_pos_as_xyz
  1  'x, y, z'
loop_
 _atom_site_type_symbol
 _atom_site_label
 _atom_site_symmetry_multiplicity
 _atom_site_fract_x
 _atom_site_fract_y
 _atom_site_fract_z
 _atom_site_occupancy
  K  K1  1  0.249272  0.523283  0.846005  1.0
  K  K2  1  0.749272  0.023283  0.653995  1.0
  K  K3  1  0.249272  0.976717  0.346005  1.0
  K  K4  1  0.749272  0.476717  0.153995  1.0
  Cu  Cu5  1  0.998469  0.999770  0.999973  1.0
  Cu  Cu6  1  0.998469  0.500230  0.499973  1.0
  Cu  Cu7  1  0.498469  0.499770  0.500027  1.0
  Cu  Cu8  1  0.498469  0.000230  0.000027  1.0
  S  S9  1  0.248258  0.223754  0.088935  1.0
  S  S10  1  0.248258  0.276246  0.588935  1.0
  S  S11  1  0.748258  0.776246  0.911065  1.0
  S  S12  1  0.748258  0.723754  0.411065  1.0
