# generated using pymatgen
data_HgCl
_symmetry_space_group_name_H-M   'P 1'
_cell_length_a   4.74624404
_cell_length_b   4.74624404
_cell_length_c   6.49631179
_cell_angle_alpha   111.42622941
_cell_angle_beta   111.42622937
_cell_angle_gamma   90.00000008
_symmetry_Int_Tables_number   1
_chemical_formula_structural   HgCl
_chemical_formula_sum   'Hg2 Cl2'
_cell_volume   125.29992588
_cell_formula_units_Z   2
loop_
 _symmetry_equiv_pos_site_id
 _symmetry_equiv_pos_as_xyz
  1  'x, y, z'
loop_
 _atom_site_type_symbol
 _atom_site_label
 _atom_site_symmetry_multiplicity
 _atom_site_fract_x
 _atom_site_fract_y
 _atom_site_fract_z
 _atom_site_occupancy
  Hg  Hg1  1  0.882746  0.882746  0.765493  1.0
  Hg  Hg2  1  0.117254  0.117254  0.234507  1.0
  Cl  Cl3  1  0.663199  0.663199  0.326397  1.0
  Cl  Cl4  1  0.336801  0.336801  0.673603  1.0
