# generated using pymatgen
data_ScOF
_symmetry_space_group_name_H-M   'P 1'
_cell_length_a   4.93825806
_cell_length_b   5.33998444
_cell_length_c   5.81576316
_cell_angle_alpha   89.54622459
_cell_angle_beta   90.00000000
_cell_angle_gamma   90.00000000
_symmetry_Int_Tables_number   1
_chemical_formula_structural   ScOF
_chemical_formula_sum   'Sc4 O4 F4'
_cell_volume   153.35815121
_cell_formula_units_Z   4
loop_
 _symmetry_equiv_pos_site_id
 _symmetry_equiv_pos_as_xyz
  1  'x, y, z'
loop_
 _atom_site_type_symbol
 _atom_site_label
 _atom_site_symmetry_multiplicity
 _atom_site_fract_x
 _atom_site_fract_y
 _atom_site_fract_z
 _atom_site_occupancy
  Sc  Sc1  1  0.515533  0.781500  0.329451  1.0
  Sc  Sc2  1  0.015533  0.218500  0.170549  1.0
  Sc  Sc3  1  0.484467  0.218500  0.670549  1.0
  Sc  Sc4  1  0.984467  0.781500  0.829451  1.0
  O  O5  1  0.277576  0.080483  0.396426  1.0
  O  O6  1  0.222424  0.080483  0.896426  1.0
  O  O7  1  0.722424  0.919517  0.603574  1.0
  O  O8  1  0.777576  0.919517  0.103574  1.0
  F  F9  1  0.773545  0.424775  0.882109  1.0
  F  F10  1  0.726455  0.424775  0.382109  1.0
  F  F11  1  0.226455  0.575225  0.117891  1.0
  F  F12  1  0.273545  0.575225  0.617891  1.0
