# generated using pymatgen
data_LaGaO3
_symmetry_space_group_name_H-M   'P 1'
_cell_length_a   5.52859296
_cell_length_b   5.52859296
_cell_length_c   5.52859296
_cell_angle_alpha   60.79416148
_cell_angle_beta   60.79416146
_cell_angle_gamma   60.79416147
_symmetry_Int_Tables_number   1
_chemical_formula_structural   LaGaO3
_chemical_formula_sum   'La2 Ga2 O6'
_cell_volume   121.62968289
_cell_formula_units_Z   2
loop_
 _symmetry_equiv_pos_site_id
 _symmetry_equiv_pos_as_xyz
  1  'x, y, z'
loop_
 _atom_site_type_symbol
 _atom_site_label
 _atom_site_symmetry_multiplicity
 _atom_site_fract_x
 _atom_site_fract_y
 _atom_site_fract_z
 _atom_site_occupancy
  La  La1  1  0.745173  0.745173  0.745173  1.0
  La  La2  1  0.245173  0.245173  0.245173  1.0
  Ga  Ga3  1  0.495141  0.495141  0.495141  1.0
  Ga  Ga4  1  0.995141  0.995141  0.995141  1.0
  O  O5  1  0.675992  0.245207  0.814287  1.0
  O  O6  1  0.245207  0.814287  0.675992  1.0
  O  O7  1  0.814287  0.675992  0.245207  1.0
  O  O8  1  0.314287  0.745207  0.175992  1.0
  O  O9  1  0.175992  0.314287  0.745207  1.0
  O  O10  1  0.745207  0.175992  0.314287  1.0
