# generated using pymatgen
data_LiYS2
_symmetry_space_group_name_H-M   'P 1'
_cell_length_a   7.70796473
_cell_length_b   10.26126512
_cell_length_c   6.77263267
_cell_angle_alpha   29.09168658
_cell_angle_beta   55.30225989
_cell_angle_gamma   41.28737003
_symmetry_Int_Tables_number   1
_chemical_formula_structural   LiYS2
_chemical_formula_sum   'Li2 Y2 S4'
_cell_volume   165.35775636
_cell_formula_units_Z   2
loop_
 _symmetry_equiv_pos_site_id
 _symmetry_equiv_pos_as_xyz
  1  'x, y, z'
loop_
 _atom_site_type_symbol
 _atom_site_label
 _atom_site_symmetry_multiplicity
 _atom_site_fract_x
 _atom_site_fract_y
 _atom_site_fract_z
 _atom_site_occupancy
  Li  Li1  1  0.500009  0.000000  0.999989  1.0
  Li  Li2  1  0.249991  0.500000  0.000011  1.0
  Y  Y3  1  0.999984  0.000022  0.999973  1.0
  Y  Y4  1  0.750016  0.499978  0.000027  1.0
  S  S5  1  0.245594  0.999995  0.508880  1.0
  S  S6  1  0.995631  0.499977  0.508848  1.0
  S  S7  1  0.754369  0.000024  0.491151  1.0
  S  S8  1  0.504407  0.500004  0.491121  1.0
