# generated using pymatgen
data_BiCl3
_symmetry_space_group_name_H-M   'P 1'
_cell_length_a   6.78816550
_cell_length_b   8.37319238
_cell_length_c   8.81509190
_cell_angle_alpha   90.00000000
_cell_angle_beta   90.00000000
_cell_angle_gamma   90.00000000
_symmetry_Int_Tables_number   1
_chemical_formula_structural   BiCl3
_chemical_formula_sum   'Bi4 Cl12'
_cell_volume   501.03762032
_cell_formula_units_Z   4
loop_
 _symmetry_equiv_pos_site_id
 _symmetry_equiv_pos_as_xyz
  1  'x, y, z'
loop_
 _atom_site_type_symbol
 _atom_site_label
 _atom_site_symmetry_multiplicity
 _atom_site_fract_x
 _atom_site_fract_y
 _atom_site_fract_z
 _atom_site_occupancy
  Bi  Bi1  1  0.488260  0.544814  0.751143  1.0
  Bi  Bi2  1  0.511740  0.455186  0.251143  1.0
  Bi  Bi3  1  0.011740  0.044814  0.751143  1.0
  Bi  Bi4  1  0.988260  0.955186  0.251143  1.0
  Cl  Cl5  1  0.633254  0.336992  0.940663  1.0
  Cl  Cl6  1  0.366746  0.663008  0.440663  1.0
  Cl  Cl7  1  0.866746  0.836992  0.940663  1.0
  Cl  Cl8  1  0.133254  0.163008  0.440663  1.0
  Cl  Cl9  1  0.649637  0.070561  0.250456  1.0
  Cl  Cl10  1  0.350363  0.929439  0.750456  1.0
  Cl  Cl11  1  0.850363  0.570561  0.250456  1.0
  Cl  Cl12  1  0.149637  0.429439  0.750456  1.0
  Cl  Cl13  1  0.133385  0.161725  0.059138  1.0
  Cl  Cl14  1  0.866615  0.838275  0.559138  1.0
  Cl  Cl15  1  0.366615  0.661725  0.059138  1.0
  Cl  Cl16  1  0.633385  0.338275  0.559138  1.0
