# generated using pymatgen
data_In2Si2O7
_symmetry_space_group_name_H-M   'P 1'
_cell_length_a   6.75065549
_cell_length_b   6.75065540
_cell_length_c   6.75065600
_cell_angle_alpha   59.99999708
_cell_angle_beta   59.99999750
_cell_angle_gamma   60.00000074
_symmetry_Int_Tables_number   1
_chemical_formula_structural   In2Si2O7
_chemical_formula_sum   'In4 Si4 O14'
_cell_volume   217.53184769
_cell_formula_units_Z   2
loop_
 _symmetry_equiv_pos_site_id
 _symmetry_equiv_pos_as_xyz
  1  'x, y, z'
loop_
 _atom_site_type_symbol
 _atom_site_label
 _atom_site_symmetry_multiplicity
 _atom_site_fract_x
 _atom_site_fract_y
 _atom_site_fract_z
 _atom_site_occupancy
  In  In1  1  0.000000  0.500000  0.000000  1.0
  In  In2  1  0.500000  0.000000  0.000000  1.0
  In  In3  1  0.000000  0.000000  0.500000  1.0
  In  In4  1  0.000000  0.000000  0.000000  1.0
  Si  Si5  1  0.500000  0.000000  0.500000  1.0
  Si  Si6  1  0.000000  0.500000  0.500000  1.0
  Si  Si7  1  0.500000  0.500000  0.000000  1.0
  Si  Si8  1  0.500000  0.500000  0.500000  1.0
  O  O9  1  0.428925  0.821075  0.821075  1.0
  O  O10  1  0.178925  0.571075  0.571075  1.0
  O  O11  1  0.821075  0.428925  0.821075  1.0
  O  O12  1  0.821075  0.821075  0.428925  1.0
  O  O13  1  0.428925  0.428925  0.821075  1.0
  O  O14  1  0.428925  0.821075  0.428925  1.0
  O  O15  1  0.178925  0.571075  0.178925  1.0
  O  O16  1  0.571075  0.178925  0.571075  1.0
  O  O17  1  0.125000  0.125000  0.125000  1.0
  O  O18  1  0.875000  0.875000  0.875000  1.0
  O  O19  1  0.821075  0.428925  0.428925  1.0
  O  O20  1  0.571075  0.571075  0.178925  1.0
  O  O21  1  0.178925  0.178925  0.571075  1.0
  O  O22  1  0.571075  0.178925  0.178925  1.0
