# generated using pymatgen
data_K4CdP2
_symmetry_space_group_name_H-M   'P 1'
_cell_length_a   5.72510478
_cell_length_b   5.72501557
_cell_length_c   9.69384370
_cell_angle_alpha   107.15875274
_cell_angle_beta   90.00000000
_cell_angle_gamma   120.00051547
_symmetry_Int_Tables_number   1
_chemical_formula_structural   K4CdP2
_chemical_formula_sum   'K4 Cd1 P2'
_cell_volume   258.70107403
_cell_formula_units_Z   1
loop_
 _symmetry_equiv_pos_site_id
 _symmetry_equiv_pos_as_xyz
  1  'x, y, z'
loop_
 _atom_site_type_symbol
 _atom_site_label
 _atom_site_symmetry_multiplicity
 _atom_site_fract_x
 _atom_site_fract_y
 _atom_site_fract_z
 _atom_site_occupancy
  K  K1  1  0.392850  0.785700  0.677909  1.0
  K  K2  1  0.207832  0.415664  0.123651  1.0
  K  K3  1  0.792168  0.584336  0.876349  1.0
  K  K4  1  0.607150  0.214300  0.322091  1.0
  Cd  Cd5  1  0.000000  0.000000  0.500000  1.0
  P  P6  1  0.911184  0.822369  0.234144  1.0
  P  P7  1  0.088816  0.177631  0.765856  1.0
