# generated using pymatgen
data_Mo(CO)6
_symmetry_space_group_name_H-M   'P 1'
_cell_length_a   6.56680725
_cell_length_b   11.55784856
_cell_length_c   12.17190899
_cell_angle_alpha   90.00000000
_cell_angle_beta   90.00000000
_cell_angle_gamma   90.00000000
_symmetry_Int_Tables_number   1
_chemical_formula_structural   Mo(CO)6
_chemical_formula_sum   'Mo4 C24 O24'
_cell_volume   923.82554129
_cell_formula_units_Z   4
loop_
 _symmetry_equiv_pos_site_id
 _symmetry_equiv_pos_as_xyz
  1  'x, y, z'
loop_
 _atom_site_type_symbol
 _atom_site_label
 _atom_site_symmetry_multiplicity
 _atom_site_fract_x
 _atom_site_fract_y
 _atom_site_fract_z
 _atom_site_occupancy
  Mo  Mo1  1  0.435408  0.250000  0.626886  1.0
  Mo  Mo2  1  0.935408  0.750000  0.873114  1.0
  Mo  Mo3  1  0.564592  0.750000  0.373114  1.0
  Mo  Mo4  1  0.064592  0.250000  0.126886  1.0
  C  C5  1  0.439503  0.621894  0.273180  1.0
  C  C6  1  0.671595  0.750000  0.778786  1.0
  C  C7  1  0.812052  0.623046  0.974243  1.0
  C  C8  1  0.187948  0.123046  0.025757  1.0
  C  C9  1  0.700222  0.250000  0.532824  1.0
  C  C10  1  0.171595  0.250000  0.721214  1.0
  C  C11  1  0.799778  0.250000  0.032824  1.0
  C  C12  1  0.560497  0.121894  0.726820  1.0
  C  C13  1  0.939503  0.121894  0.226820  1.0
  C  C14  1  0.560497  0.378106  0.726820  1.0
  C  C15  1  0.439503  0.878106  0.273180  1.0
  C  C16  1  0.939503  0.378106  0.226820  1.0
  C  C17  1  0.299778  0.750000  0.467176  1.0
  C  C18  1  0.187948  0.376954  0.025757  1.0
  C  C19  1  0.328405  0.250000  0.221214  1.0
  C  C20  1  0.828405  0.750000  0.278786  1.0
  C  C21  1  0.687948  0.876954  0.474243  1.0
  C  C22  1  0.312052  0.376954  0.525757  1.0
  C  C23  1  0.200222  0.750000  0.967176  1.0
  C  C24  1  0.060497  0.878106  0.773180  1.0
  C  C25  1  0.812052  0.876954  0.974243  1.0
  C  C26  1  0.312052  0.123046  0.525757  1.0
  C  C27  1  0.687948  0.623046  0.474243  1.0
  C  C28  1  0.060497  0.621894  0.773180  1.0
  O  O29  1  0.369090  0.949798  0.218681  1.0
  O  O30  1  0.755557  0.947445  0.531311  1.0
  O  O31  1  0.024328  0.250000  0.773889  1.0
  O  O32  1  0.848829  0.250000  0.481421  1.0
  O  O33  1  0.975672  0.750000  0.226111  1.0
  O  O34  1  0.744443  0.552555  0.031311  1.0
  O  O35  1  0.755557  0.552555  0.531311  1.0
  O  O36  1  0.130910  0.949798  0.718681  1.0
  O  O37  1  0.651171  0.250000  0.981421  1.0
  O  O38  1  0.244443  0.052555  0.468689  1.0
  O  O39  1  0.255557  0.447445  0.968689  1.0
  O  O40  1  0.630910  0.050202  0.781319  1.0
  O  O41  1  0.744443  0.947445  0.031311  1.0
  O  O42  1  0.869090  0.449798  0.281319  1.0
  O  O43  1  0.130910  0.550202  0.718681  1.0
  O  O44  1  0.524328  0.750000  0.726111  1.0
  O  O45  1  0.244443  0.447445  0.468689  1.0
  O  O46  1  0.869090  0.050202  0.281319  1.0
  O  O47  1  0.151171  0.750000  0.518579  1.0
  O  O48  1  0.255557  0.052555  0.968689  1.0
  O  O49  1  0.630910  0.449798  0.781319  1.0
  O  O50  1  0.369090  0.550202  0.218681  1.0
  O  O51  1  0.348829  0.750000  0.018579  1.0
  O  O52  1  0.475672  0.250000  0.273889  1.0
