# generated using pymatgen
data_Al12Co4Cu
_symmetry_space_group_name_H-M   'P 1'
_cell_length_a   8.03225282
_cell_length_b   8.61262236
_cell_length_c   12.37677094
_cell_angle_alpha   106.04188709
_cell_angle_beta   90.00000000
_cell_angle_gamma   117.79484406
_symmetry_Int_Tables_number   1
_chemical_formula_structural   Al12Co4Cu
_chemical_formula_sum   'Al36 Co12 Cu3'
_cell_volume   719.51875712
_cell_formula_units_Z   3
loop_
 _symmetry_equiv_pos_site_id
 _symmetry_equiv_pos_as_xyz
  1  'x, y, z'
loop_
 _atom_site_type_symbol
 _atom_site_label
 _atom_site_symmetry_multiplicity
 _atom_site_fract_x
 _atom_site_fract_y
 _atom_site_fract_z
 _atom_site_occupancy
  Al  Al1  1  0.603312  0.638689  0.659194  1.0
  Al  Al2  1  0.035377  0.638689  0.659194  1.0
  Al  Al3  1  0.598728  0.625908  0.881660  1.0
  Al  Al4  1  0.027180  0.625908  0.881660  1.0
  Al  Al5  1  0.404720  0.254612  0.885164  1.0
  Al  Al6  1  0.849892  0.254612  0.885164  1.0
  Al  Al7  1  0.274364  0.014168  0.669253  1.0
  Al  Al8  1  0.739804  0.014168  0.669253  1.0
  Al  Al9  1  0.420361  0.257348  0.516983  1.0
  Al  Al10  1  0.836987  0.257348  0.516983  1.0
  Al  Al11  1  0.249321  0.996813  0.996134  1.0
  Al  Al12  1  0.747492  0.996813  0.996134  1.0
  Al  Al13  1  0.393449  0.354729  0.332900  1.0
  Al  Al14  1  0.961280  0.354729  0.332900  1.0
  Al  Al15  1  0.397956  0.367829  0.110537  1.0
  Al  Al16  1  0.477833  0.955666  0.827647  1.0
  Al  Al17  1  0.759686  0.519371  0.034299  1.0
  Al  Al18  1  0.941752  0.883503  0.820620  1.0
  Al  Al19  1  0.762698  0.525395  0.462774  1.0
  Al  Al20  1  0.519037  0.038073  0.164456  1.0
  Al  Al21  1  0.237051  0.474101  0.957611  1.0
  Al  Al22  1  0.054972  0.109944  0.171464  1.0
  Al  Al23  1  0.234024  0.468049  0.529242  1.0
  Al  Al24  1  0.922999  0.845999  0.408381  1.0
  Al  Al25  1  0.698723  0.397445  0.226680  1.0
  Al  Al26  1  0.073775  0.147549  0.583658  1.0
  Al  Al27  1  0.298183  0.596365  0.765338  1.0
  Al  Al28  1  0.330213  0.660426  0.276501  1.0
  Al  Al29  1  0.666986  0.333973  0.716192  1.0
  Al  Al30  1  0.159454  0.736096  0.475211  1.0
  Al  Al31  1  0.576642  0.736096  0.475211  1.0
  Al  Al32  1  0.256876  0.979459  0.322805  1.0
  Al  Al33  1  0.722583  0.979459  0.322805  1.0
  Al  Al34  1  0.147061  0.738913  0.107027  1.0
  Al  Al35  1  0.591853  0.738913  0.107027  1.0
  Al  Al36  1  0.969872  0.367829  0.110537  1.0
  Co  Co37  1  0.399575  0.360763  0.715343  1.0
  Co  Co38  1  0.961188  0.360763  0.715343  1.0
  Co  Co39  1  0.597188  0.632825  0.276822  1.0
  Co  Co40  1  0.035638  0.632825  0.276822  1.0
  Co  Co41  1  0.085094  0.170187  0.386006  1.0
  Co  Co42  1  0.090642  0.181284  0.992106  1.0
  Co  Co43  1  0.397484  0.794968  0.978699  1.0
  Co  Co44  1  0.601706  0.203411  0.365359  1.0
  Co  Co45  1  0.911652  0.823304  0.606058  1.0
  Co  Co46  1  0.906149  0.812298  0.999981  1.0
  Co  Co47  1  0.599309  0.198619  0.013396  1.0
  Co  Co48  1  0.395051  0.790102  0.626714  1.0
  Cu  Cu49  1  0.088140  0.176279  0.783256  1.0
  Cu  Cu50  1  0.908485  0.816970  0.208730  1.0
  Cu  Cu51  1  0.498207  0.996413  0.495764  1.0
