# generated using pymatgen
data_HoZrSb
_symmetry_space_group_name_H-M   'P 1'
_cell_length_a   4.26957840
_cell_length_b   4.26957840
_cell_length_c   8.82791295
_cell_angle_alpha   103.99413895
_cell_angle_beta   103.99413895
_cell_angle_gamma   90.00000000
_symmetry_Int_Tables_number   1
_chemical_formula_structural   HoZrSb
_chemical_formula_sum   'Ho2 Zr2 Sb2'
_cell_volume   151.22343779
_cell_formula_units_Z   2
loop_
 _symmetry_equiv_pos_site_id
 _symmetry_equiv_pos_as_xyz
  1  'x, y, z'
loop_
 _atom_site_type_symbol
 _atom_site_label
 _atom_site_symmetry_multiplicity
 _atom_site_fract_x
 _atom_site_fract_y
 _atom_site_fract_z
 _atom_site_occupancy
  Ho  Ho1  1  0.676478  0.676478  0.352956  1.0
  Ho  Ho2  1  0.323522  0.323522  0.647044  1.0
  Zr  Zr3  1  0.000000  0.500000  0.000000  1.0
  Zr  Zr4  1  0.500000  0.000000  0.000000  1.0
  Sb  Sb5  1  0.134018  0.134018  0.268036  1.0
  Sb  Sb6  1  0.865982  0.865982  0.731964  1.0
