# generated using pymatgen
data_Pd2Cl2O
_symmetry_space_group_name_H-M   'P 1'
_cell_length_a   6.47875574
_cell_length_b   6.47875575
_cell_length_c   6.79923468
_cell_angle_alpha   118.45267537
_cell_angle_beta   118.45267537
_cell_angle_gamma   89.99999998
_symmetry_Int_Tables_number   1
_chemical_formula_structural   Pd2Cl2O
_chemical_formula_sum   'Pd4 Cl4 O2'
_cell_volume   210.88660843
_cell_formula_units_Z   2
loop_
 _symmetry_equiv_pos_site_id
 _symmetry_equiv_pos_as_xyz
  1  'x, y, z'
loop_
 _atom_site_type_symbol
 _atom_site_label
 _atom_site_symmetry_multiplicity
 _atom_site_fract_x
 _atom_site_fract_y
 _atom_site_fract_z
 _atom_site_occupancy
  Pd  Pd1  1  0.000000  0.500000  0.000000  1.0
  Pd  Pd2  1  0.000000  0.000000  0.500000  1.0
  Pd  Pd3  1  0.500000  0.000000  0.500000  1.0
  Pd  Pd4  1  0.000000  0.000000  0.000000  1.0
  Cl  Cl5  1  0.580245  0.830245  0.160491  1.0
  Cl  Cl6  1  0.830245  0.580245  0.660491  1.0
  Cl  Cl7  1  0.169755  0.419755  0.339509  1.0
  Cl  Cl8  1  0.419755  0.169755  0.839509  1.0
  O  O9  1  0.875000  0.125000  0.750000  1.0
  O  O10  1  0.125000  0.875000  0.250000  1.0
