# generated using pymatgen
data_BaGa4
_symmetry_space_group_name_H-M   'P 1'
_cell_length_a   4.62109206
_cell_length_b   4.62109206
_cell_length_c   6.35139259
_cell_angle_alpha   111.33287388
_cell_angle_beta   111.33287388
_cell_angle_gamma   90.00000003
_symmetry_Int_Tables_number   1
_chemical_formula_structural   BaGa4
_chemical_formula_sum   'Ba1 Ga4'
_cell_volume   116.30445540
_cell_formula_units_Z   1
loop_
 _symmetry_equiv_pos_site_id
 _symmetry_equiv_pos_as_xyz
  1  'x, y, z'
loop_
 _atom_site_type_symbol
 _atom_site_label
 _atom_site_symmetry_multiplicity
 _atom_site_fract_x
 _atom_site_fract_y
 _atom_site_fract_z
 _atom_site_occupancy
  Ba  Ba1  1  0.000000  0.000000  0.000000  1.0
  Ga  Ga2  1  0.621088  0.621088  0.242176  1.0
  Ga  Ga3  1  0.750000  0.250000  0.500000  1.0
  Ga  Ga4  1  0.250000  0.750000  0.500000  1.0
  Ga  Ga5  1  0.378912  0.378912  0.757824  1.0
