# generated using pymatgen
data_Cu2GeSe3
_symmetry_space_group_name_H-M   'P 1'
_cell_length_a   4.04187815
_cell_length_b   5.57784136
_cell_length_c   6.85460261
_cell_angle_alpha   114.00825906
_cell_angle_beta   107.14731376
_cell_angle_gamma   90.00000004
_symmetry_Int_Tables_number   1
_chemical_formula_structural   Cu2GeSe3
_chemical_formula_sum   'Cu2 Ge1 Se3'
_cell_volume   133.61248902
_cell_formula_units_Z   1
loop_
 _symmetry_equiv_pos_site_id
 _symmetry_equiv_pos_as_xyz
  1  'x, y, z'
loop_
 _atom_site_type_symbol
 _atom_site_label
 _atom_site_symmetry_multiplicity
 _atom_site_fract_x
 _atom_site_fract_y
 _atom_site_fract_z
 _atom_site_occupancy
  Cu  Cu1  1  0.832731  0.570035  0.665461  1.0
  Cu  Cu2  1  0.167269  0.904574  0.334539  1.0
  Ge  Ge3  1  0.500000  0.266627  0.000000  1.0
  Se  Se4  1  0.670782  0.673684  0.341564  1.0
  Se  Se5  1  0.329218  0.332120  0.658436  1.0
  Se  Se6  1  0.000000  0.990959  0.000000  1.0
