# generated using pymatgen
data_LiBiS2
_symmetry_space_group_name_H-M   'P 1'
_cell_length_a   7.88958643
_cell_length_b   10.47444884
_cell_length_c   6.88091601
_cell_angle_alpha   29.16153342
_cell_angle_beta   55.01969924
_cell_angle_gamma   41.06651397
_symmetry_Int_Tables_number   1
_chemical_formula_structural   LiBiS2
_chemical_formula_sum   'Li2 Bi2 S4'
_cell_volume   175.47468605
_cell_formula_units_Z   2
loop_
 _symmetry_equiv_pos_site_id
 _symmetry_equiv_pos_as_xyz
  1  'x, y, z'
loop_
 _atom_site_type_symbol
 _atom_site_label
 _atom_site_symmetry_multiplicity
 _atom_site_fract_x
 _atom_site_fract_y
 _atom_site_fract_z
 _atom_site_occupancy
  Li  Li1  1  0.000001  0.000000  0.999997  1.0
  Li  Li2  1  0.749999  0.500000  0.000003  1.0
  Bi  Bi3  1  0.250427  0.500000  0.999147  1.0
  Bi  Bi4  1  0.499573  0.000000  0.000853  1.0
  S  S5  1  0.500692  0.500000  0.498618  1.0
  S  S6  1  0.249308  0.000000  0.501382  1.0
  S  S7  1  0.998916  0.500000  0.502169  1.0
  S  S8  1  0.751084  0.000000  0.497831  1.0
