# generated using pymatgen
data_OsN2
_symmetry_space_group_name_H-M   'P 1'
_cell_length_a   2.70134992
_cell_length_b   4.14582772
_cell_length_c   4.95327466
_cell_angle_alpha   90.00000000
_cell_angle_beta   90.00000000
_cell_angle_gamma   90.00000000
_symmetry_Int_Tables_number   1
_chemical_formula_structural   OsN2
_chemical_formula_sum   'Os2 N4'
_cell_volume   55.47336433
_cell_formula_units_Z   2
loop_
 _symmetry_equiv_pos_site_id
 _symmetry_equiv_pos_as_xyz
  1  'x, y, z'
loop_
 _atom_site_type_symbol
 _atom_site_label
 _atom_site_symmetry_multiplicity
 _atom_site_fract_x
 _atom_site_fract_y
 _atom_site_fract_z
 _atom_site_occupancy
  Os  Os1  1  0.500000  0.500000  0.500000  1.0
  Os  Os2  1  0.000000  0.000000  0.000000  1.0
  N  N3  1  0.500000  0.373410  0.904299  1.0
  N  N4  1  0.500000  0.626590  0.095701  1.0
  N  N5  1  0.000000  0.126590  0.404299  1.0
  N  N6  1  0.000000  0.873410  0.595701  1.0
