# generated using pymatgen
data_PrMnGe
_symmetry_space_group_name_H-M   'P 1'
_cell_length_a   4.28026540
_cell_length_b   4.28762004
_cell_length_c   7.16642936
_cell_angle_alpha   90.00000000
_cell_angle_beta   90.00000000
_cell_angle_gamma   90.00000000
_symmetry_Int_Tables_number   1
_chemical_formula_structural   PrMnGe
_chemical_formula_sum   'Pr2 Mn2 Ge2'
_cell_volume   131.51939880
_cell_formula_units_Z   2
loop_
 _symmetry_equiv_pos_site_id
 _symmetry_equiv_pos_as_xyz
  1  'x, y, z'
loop_
 _atom_site_type_symbol
 _atom_site_label
 _atom_site_symmetry_multiplicity
 _atom_site_fract_x
 _atom_site_fract_y
 _atom_site_fract_z
 _atom_site_occupancy
  Pr  Pr1  1  0.750000  0.750000  0.329395  1.0
  Pr  Pr2  1  0.250000  0.250000  0.670605  1.0
  Mn  Mn3  1  0.250000  0.750000  0.999925  1.0
  Mn  Mn4  1  0.750000  0.250000  0.000075  1.0
  Ge  Ge5  1  0.250000  0.250000  0.207640  1.0
  Ge  Ge6  1  0.750000  0.750000  0.792360  1.0
