# generated using pymatgen
data_C(ClF)2
_symmetry_space_group_name_H-M   'P 1'
_cell_length_a   5.35173245
_cell_length_b   5.94042957
_cell_length_c   8.40025641
_cell_angle_alpha   81.75021366
_cell_angle_beta   71.42499743
_cell_angle_gamma   63.22744383
_symmetry_Int_Tables_number   1
_chemical_formula_structural   C(ClF)2
_chemical_formula_sum   'C2 Cl4 F4'
_cell_volume   226.00900090
_cell_formula_units_Z   2
loop_
 _symmetry_equiv_pos_site_id
 _symmetry_equiv_pos_as_xyz
  1  'x, y, z'
loop_
 _atom_site_type_symbol
 _atom_site_label
 _atom_site_symmetry_multiplicity
 _atom_site_fract_x
 _atom_site_fract_y
 _atom_site_fract_z
 _atom_site_occupancy
  C  C1  1  0.003463  0.000000  0.000000  1.0
  C  C2  1  0.753463  0.500000  0.500000  1.0
  Cl  Cl3  1  0.278559  0.745346  0.070367  1.0
  Cl  Cl4  1  0.094273  0.254654  0.929633  1.0
  Cl  Cl5  1  0.773906  0.754654  0.570367  1.0
  Cl  Cl6  1  0.098927  0.245346  0.429633  1.0
  F  F7  1  0.955391  0.920702  0.873021  1.0
  F  F8  1  0.749114  0.079298  0.126979  1.0
  F  F9  1  0.626093  0.579298  0.373021  1.0
  F  F10  1  0.578412  0.420702  0.626979  1.0
