# generated using pymatgen
data_PrScGe
_symmetry_space_group_name_H-M   'P 1'
_cell_length_a   4.34528471
_cell_length_b   4.34528472
_cell_length_c   8.63021453
_cell_angle_alpha   104.58099531
_cell_angle_beta   104.58099534
_cell_angle_gamma   90.00000000
_symmetry_Int_Tables_number   1
_chemical_formula_structural   PrScGe
_chemical_formula_sum   'Pr2 Sc2 Ge2'
_cell_volume   152.27417381
_cell_formula_units_Z   2
loop_
 _symmetry_equiv_pos_site_id
 _symmetry_equiv_pos_as_xyz
  1  'x, y, z'
loop_
 _atom_site_type_symbol
 _atom_site_label
 _atom_site_symmetry_multiplicity
 _atom_site_fract_x
 _atom_site_fract_y
 _atom_site_fract_z
 _atom_site_occupancy
  Pr  Pr1  1  0.676446  0.676446  0.352892  1.0
  Pr  Pr2  1  0.323554  0.323554  0.647108  1.0
  Sc  Sc3  1  0.000000  0.500000  0.000000  1.0
  Sc  Sc4  1  0.500000  0.000000  0.000000  1.0
  Ge  Ge5  1  0.121686  0.121686  0.243372  1.0
  Ge  Ge6  1  0.878314  0.878314  0.756628  1.0
