# generated using pymatgen
data_Ca2NF
_symmetry_space_group_name_H-M   'P 1'
_cell_length_a   4.91889291
_cell_length_b   4.91889291
_cell_length_c   6.25675865
_cell_angle_alpha   113.13910504
_cell_angle_beta   113.13910504
_cell_angle_gamma   90.01065009
_symmetry_Int_Tables_number   1
_chemical_formula_structural   Ca2NF
_chemical_formula_sum   'Ca4 N2 F2'
_cell_volume   125.85038335
_cell_formula_units_Z   2
loop_
 _symmetry_equiv_pos_site_id
 _symmetry_equiv_pos_as_xyz
  1  'x, y, z'
loop_
 _atom_site_type_symbol
 _atom_site_label
 _atom_site_symmetry_multiplicity
 _atom_site_fract_x
 _atom_site_fract_y
 _atom_site_fract_z
 _atom_site_occupancy
  Ca  Ca1  1  0.146829  0.396988  0.294104  1.0
  Ca  Ca2  1  0.396988  0.146829  0.794104  1.0
  Ca  Ca3  1  0.603012  0.853171  0.205896  1.0
  Ca  Ca4  1  0.853171  0.603012  0.705896  1.0
  N  N5  1  0.375391  0.624609  0.750000  1.0
  N  N6  1  0.624609  0.375391  0.250000  1.0
  F  F7  1  0.124960  0.875040  0.250000  1.0
  F  F8  1  0.875040  0.124960  0.750000  1.0
