# generated using pymatgen
data_Ca5Si3
_symmetry_space_group_name_H-M   'P 1'
_cell_length_a   7.64316007
_cell_length_b   7.64312091
_cell_length_c   9.15784530
_cell_angle_alpha   114.66384109
_cell_angle_beta   114.66432218
_cell_angle_gamma   89.99999855
_symmetry_Int_Tables_number   1
_chemical_formula_structural   Ca5Si3
_chemical_formula_sum   'Ca10 Si6'
_cell_volume   431.88627680
_cell_formula_units_Z   2
loop_
 _symmetry_equiv_pos_site_id
 _symmetry_equiv_pos_as_xyz
  1  'x, y, z'
loop_
 _atom_site_type_symbol
 _atom_site_label
 _atom_site_symmetry_multiplicity
 _atom_site_fract_x
 _atom_site_fract_y
 _atom_site_fract_z
 _atom_site_occupancy
  Ca  Ca1  1  0.180056  0.039914  0.719969  1.0
  Ca  Ca2  1  0.039914  0.539914  0.719969  1.0
  Ca  Ca3  1  0.680056  0.180059  0.719971  1.0
  Ca  Ca4  1  0.960086  0.460086  0.280031  1.0
  Ca  Ca5  1  0.539914  0.680059  0.719971  1.0
  Ca  Ca6  1  0.819944  0.960086  0.280031  1.0
  Ca  Ca7  1  0.460086  0.319941  0.280029  1.0
  Ca  Ca8  1  0.319944  0.819941  0.280029  1.0
  Ca  Ca9  1  0.500000  0.500000  0.000000  1.0
  Ca  Ca10  1  0.000000  0.000000  0.000000  1.0
  Si  Si11  1  0.612678  0.112682  0.000017  1.0
  Si  Si12  1  0.887338  0.612682  0.000017  1.0
  Si  Si13  1  0.112662  0.387318  0.999983  1.0
  Si  Si14  1  0.387322  0.887318  0.999983  1.0
  Si  Si15  1  0.749998  0.750000  0.500000  1.0
  Si  Si16  1  0.250002  0.250000  0.500000  1.0
