# generated using pymatgen
data_Sc2Ni2Sn
_symmetry_space_group_name_H-M   'P 1'
_cell_length_a   3.35357956
_cell_length_b   7.14663894
_cell_length_c   7.14663894
_cell_angle_alpha   90.00000000
_cell_angle_beta   90.00000000
_cell_angle_gamma   90.00000000
_symmetry_Int_Tables_number   1
_chemical_formula_structural   Sc2Ni2Sn
_chemical_formula_sum   'Sc4 Ni4 Sn2'
_cell_volume   171.28222532
_cell_formula_units_Z   2
loop_
 _symmetry_equiv_pos_site_id
 _symmetry_equiv_pos_as_xyz
  1  'x, y, z'
loop_
 _atom_site_type_symbol
 _atom_site_label
 _atom_site_symmetry_multiplicity
 _atom_site_fract_x
 _atom_site_fract_y
 _atom_site_fract_z
 _atom_site_occupancy
  Sc  Sc1  1  0.500000  0.169177  0.669177  1.0
  Sc  Sc2  1  0.500000  0.330823  0.169177  1.0
  Sc  Sc3  1  0.500000  0.669177  0.830823  1.0
  Sc  Sc4  1  0.500000  0.830823  0.330823  1.0
  Ni  Ni5  1  0.000000  0.376503  0.876503  1.0
  Ni  Ni6  1  0.000000  0.123497  0.376503  1.0
  Ni  Ni7  1  0.000000  0.876503  0.623497  1.0
  Ni  Ni8  1  0.000000  0.623497  0.123497  1.0
  Sn  Sn9  1  0.000000  0.000000  0.000000  1.0
  Sn  Sn10  1  0.000000  0.500000  0.500000  1.0
