# generated using pymatgen
data_BaCoS2
_symmetry_space_group_name_H-M   'P 1'
_cell_length_a   4.37710655
_cell_length_b   4.37710655
_cell_length_c   8.99303162
_cell_angle_alpha   90.00000000
_cell_angle_beta   90.00000000
_cell_angle_gamma   89.98299756
_symmetry_Int_Tables_number   1
_chemical_formula_structural   BaCoS2
_chemical_formula_sum   'Ba2 Co2 S4'
_cell_volume   172.29804054
_cell_formula_units_Z   2
loop_
 _symmetry_equiv_pos_site_id
 _symmetry_equiv_pos_as_xyz
  1  'x, y, z'
loop_
 _atom_site_type_symbol
 _atom_site_label
 _atom_site_symmetry_multiplicity
 _atom_site_fract_x
 _atom_site_fract_y
 _atom_site_fract_z
 _atom_site_occupancy
  Ba  Ba1  1  0.246200  0.253800  0.200593  1.0
  Ba  Ba2  1  0.746200  0.753800  0.799407  1.0
  Co  Co3  1  0.240168  0.259832  0.587371  1.0
  Co  Co4  1  0.740168  0.759832  0.412629  1.0
  S  S5  1  0.745859  0.754141  0.160242  1.0
  S  S6  1  0.245859  0.254141  0.839758  1.0
  S  S7  1  0.241773  0.758227  0.500000  1.0
  S  S8  1  0.741773  0.258227  0.500000  1.0
