# generated using pymatgen
data_Li3(CuO2)2
_symmetry_space_group_name_H-M   'P 1'
_cell_length_a   5.27822484
_cell_length_b   5.27822483
_cell_length_c   10.56642089
_cell_angle_alpha   138.41248627
_cell_angle_beta   149.02666805
_cell_angle_gamma   52.63675933
_symmetry_Int_Tables_number   1
_chemical_formula_structural   Li3(CuO2)2
_chemical_formula_sum   'Li3 Cu2 O4'
_cell_volume   100.04675044
_cell_formula_units_Z   1
loop_
 _symmetry_equiv_pos_site_id
 _symmetry_equiv_pos_as_xyz
  1  'x, y, z'
loop_
 _atom_site_type_symbol
 _atom_site_label
 _atom_site_symmetry_multiplicity
 _atom_site_fract_x
 _atom_site_fract_y
 _atom_site_fract_z
 _atom_site_occupancy
  Li  Li1  1  0.287050  0.787050  0.750000  1.0
  Li  Li2  1  0.284494  0.784494  0.250000  1.0
  Li  Li3  1  0.708606  0.208606  0.750000  1.0
  Cu  Cu4  1  0.005160  0.505160  0.750000  1.0
  Cu  Cu5  1  0.998646  0.498646  0.250000  1.0
  O  O6  1  0.339889  0.364309  0.984737  1.0
  O  O7  1  0.630236  0.605831  0.980874  1.0
  O  O8  1  0.644083  0.668489  0.519126  1.0
  O  O9  1  0.394835  0.370416  0.515263  1.0
