# generated using pymatgen
data_Eu(SiNi)2
_symmetry_space_group_name_H-M   'P 1'
_cell_length_a   4.03296275
_cell_length_b   4.03296209
_cell_length_c   5.64580685
_cell_angle_alpha   110.92615262
_cell_angle_beta   110.92614938
_cell_angle_gamma   89.99999442
_symmetry_Int_Tables_number   1
_chemical_formula_structural   Eu(SiNi)2
_chemical_formula_sum   'Eu1 Si2 Ni2'
_cell_volume   79.25265385
_cell_formula_units_Z   1
loop_
 _symmetry_equiv_pos_site_id
 _symmetry_equiv_pos_as_xyz
  1  'x, y, z'
loop_
 _atom_site_type_symbol
 _atom_site_label
 _atom_site_symmetry_multiplicity
 _atom_site_fract_x
 _atom_site_fract_y
 _atom_site_fract_z
 _atom_site_occupancy
  Eu  Eu1  1  0.000000  0.000000  0.000000  1.0
  Si  Si2  1  0.631460  0.631460  0.262919  1.0
  Si  Si3  1  0.368540  0.368540  0.737081  1.0
  Ni  Ni4  1  0.750000  0.250000  0.500000  1.0
  Ni  Ni5  1  0.250000  0.750000  0.500000  1.0
