# generated using pymatgen
data_LiDyS2
_symmetry_space_group_name_H-M   'P 1'
_cell_length_a   7.69313345
_cell_length_b   10.24747565
_cell_length_c   6.77020522
_cell_angle_alpha   29.08813467
_cell_angle_beta   55.37791243
_cell_angle_gamma   41.34595782
_symmetry_Int_Tables_number   1
_chemical_formula_structural   LiDyS2
_chemical_formula_sum   'Li2 Dy2 S4'
_cell_volume   164.86746941
_cell_formula_units_Z   2
loop_
 _symmetry_equiv_pos_site_id
 _symmetry_equiv_pos_as_xyz
  1  'x, y, z'
loop_
 _atom_site_type_symbol
 _atom_site_label
 _atom_site_symmetry_multiplicity
 _atom_site_fract_x
 _atom_site_fract_y
 _atom_site_fract_z
 _atom_site_occupancy
  Li  Li1  1  0.000003  0.000000  0.000000  1.0
  Li  Li2  1  0.749997  0.500000  0.000000  1.0
  Dy  Dy3  1  0.250017  0.500000  0.000000  1.0
  Dy  Dy4  1  0.499983  0.000000  0.000000  1.0
  S  S5  1  0.004983  0.500043  0.489949  1.0
  S  S6  1  0.495019  0.499957  0.510051  1.0
  S  S7  1  0.254981  0.000043  0.489949  1.0
  S  S8  1  0.745017  0.999957  0.510051  1.0
