# generated using pymatgen
data_Na2SO4
_symmetry_space_group_name_H-M   'P 1'
_cell_length_a   5.79473958
_cell_length_b   5.79473958
_cell_length_c   6.90161127
_cell_angle_alpha   102.71671122
_cell_angle_beta   102.71671117
_cell_angle_gamma   118.40121133
_symmetry_Int_Tables_number   1
_chemical_formula_structural   Na2SO4
_chemical_formula_sum   'Na4 S2 O8'
_cell_volume   184.05500076
_cell_formula_units_Z   2
loop_
 _symmetry_equiv_pos_site_id
 _symmetry_equiv_pos_as_xyz
  1  'x, y, z'
loop_
 _atom_site_type_symbol
 _atom_site_label
 _atom_site_symmetry_multiplicity
 _atom_site_fract_x
 _atom_site_fract_y
 _atom_site_fract_z
 _atom_site_occupancy
  Na  Na1  1  0.560174  0.439826  0.250000  1.0
  Na  Na2  1  0.189826  0.810174  0.250000  1.0
  Na  Na3  1  0.810174  0.189826  0.750000  1.0
  Na  Na4  1  0.439826  0.560174  0.750000  1.0
  S  S5  1  0.875000  0.125000  0.250000  1.0
  S  S6  1  0.125000  0.875000  0.750000  1.0
  O  O7  1  0.249772  0.176954  0.885486  1.0
  O  O8  1  0.291468  0.864286  0.614514  1.0
  O  O9  1  0.823046  0.750228  0.614514  1.0
  O  O10  1  0.135714  0.708532  0.885486  1.0
  O  O11  1  0.750228  0.823046  0.114514  1.0
  O  O12  1  0.708532  0.135714  0.385486  1.0
  O  O13  1  0.864286  0.291468  0.114514  1.0
  O  O14  1  0.176954  0.249772  0.385486  1.0
