# generated using pymatgen
data_NiGePt2
_symmetry_space_group_name_H-M   'P 1'
_cell_length_a   5.37338894
_cell_length_b   5.37338894
_cell_length_c   5.42401171
_cell_angle_alpha   118.19305614
_cell_angle_beta   118.19305607
_cell_angle_gamma   92.64859799
_symmetry_Int_Tables_number   1
_chemical_formula_structural   NiGePt2
_chemical_formula_sum   'Ni2 Ge2 Pt4'
_cell_volume   114.10237345
_cell_formula_units_Z   2
loop_
 _symmetry_equiv_pos_site_id
 _symmetry_equiv_pos_as_xyz
  1  'x, y, z'
loop_
 _atom_site_type_symbol
 _atom_site_label
 _atom_site_symmetry_multiplicity
 _atom_site_fract_x
 _atom_site_fract_y
 _atom_site_fract_z
 _atom_site_occupancy
  Ni  Ni1  1  0.201382  0.798618  0.000000  1.0
  Ni  Ni2  1  0.798618  0.201382  0.000000  1.0
  Ge  Ge3  1  0.767355  0.767355  0.534711  1.0
  Ge  Ge4  1  0.232645  0.232645  0.465289  1.0
  Pt  Pt5  1  0.697960  0.697960  0.000000  1.0
  Pt  Pt6  1  0.750000  0.250000  0.500000  1.0
  Pt  Pt7  1  0.302040  0.302040  0.000000  1.0
  Pt  Pt8  1  0.250000  0.750000  0.500000  1.0
