# generated using pymatgen
data_Ba(MnP)2
_symmetry_space_group_name_H-M   'P 1'
_cell_length_a   3.81838118
_cell_length_b   3.81838118
_cell_length_c   6.98383395
_cell_angle_alpha   105.86507005
_cell_angle_beta   105.86507006
_cell_angle_gamma   90.00000006
_symmetry_Int_Tables_number   1
_chemical_formula_structural   Ba(MnP)2
_chemical_formula_sum   'Ba1 Mn2 P2'
_cell_volume   93.90710490
_cell_formula_units_Z   1
loop_
 _symmetry_equiv_pos_site_id
 _symmetry_equiv_pos_as_xyz
  1  'x, y, z'
loop_
 _atom_site_type_symbol
 _atom_site_label
 _atom_site_symmetry_multiplicity
 _atom_site_fract_x
 _atom_site_fract_y
 _atom_site_fract_z
 _atom_site_occupancy
  Ba  Ba1  1  0.000000  0.000000  0.000000  1.0
  Mn  Mn2  1  0.250000  0.750000  0.500000  1.0
  Mn  Mn3  1  0.750000  0.250000  0.500000  1.0
  P  P4  1  0.653520  0.653520  0.307040  1.0
  P  P5  1  0.346480  0.346480  0.692960  1.0
