# generated using pymatgen
data_VOF
_symmetry_space_group_name_H-M   'P 1'
_cell_length_a   3.87333907
_cell_length_b   3.16723750
_cell_length_c   6.27526569
_cell_angle_alpha   89.96596259
_cell_angle_beta   90.00032146
_cell_angle_gamma   90.00003200
_symmetry_Int_Tables_number   1
_chemical_formula_structural   VOF
_chemical_formula_sum   'V2 O2 F2'
_cell_volume   76.98359517
_cell_formula_units_Z   2
loop_
 _symmetry_equiv_pos_site_id
 _symmetry_equiv_pos_as_xyz
  1  'x, y, z'
loop_
 _atom_site_type_symbol
 _atom_site_label
 _atom_site_symmetry_multiplicity
 _atom_site_fract_x
 _atom_site_fract_y
 _atom_site_fract_z
 _atom_site_occupancy
  V  V1  1  0.250001  0.249892  0.151940  1.0
  V  V2  1  0.749999  0.750115  0.848046  1.0
  O  O3  1  0.250000  0.750014  0.934237  1.0
  O  O4  1  0.750000  0.249987  0.065764  1.0
  F  F5  1  0.250001  0.749941  0.351852  1.0
  F  F6  1  0.749998  0.250052  0.648162  1.0
