# generated using pymatgen
data_TaSiIr
_symmetry_space_group_name_H-M   'P 1'
_cell_length_a   3.81427912
_cell_length_b   6.43128148
_cell_length_c   7.32752116
_cell_angle_alpha   90.00000000
_cell_angle_beta   90.00000000
_cell_angle_gamma   90.00000000
_symmetry_Int_Tables_number   1
_chemical_formula_structural   TaSiIr
_chemical_formula_sum   'Ta4 Si4 Ir4'
_cell_volume   179.74924284
_cell_formula_units_Z   4
loop_
 _symmetry_equiv_pos_site_id
 _symmetry_equiv_pos_as_xyz
  1  'x, y, z'
loop_
 _atom_site_type_symbol
 _atom_site_label
 _atom_site_symmetry_multiplicity
 _atom_site_fract_x
 _atom_site_fract_y
 _atom_site_fract_z
 _atom_site_occupancy
  Ta  Ta1  1  0.750000  0.524226  0.172178  1.0
  Ta  Ta2  1  0.250000  0.975774  0.672178  1.0
  Ta  Ta3  1  0.750000  0.024226  0.327822  1.0
  Ta  Ta4  1  0.250000  0.475774  0.827822  1.0
  Si  Si5  1  0.250000  0.232601  0.123981  1.0
  Si  Si6  1  0.250000  0.732601  0.376019  1.0
  Si  Si7  1  0.750000  0.767399  0.876019  1.0
  Si  Si8  1  0.750000  0.267399  0.623981  1.0
  Ir  Ir9  1  0.250000  0.854614  0.064896  1.0
  Ir  Ir10  1  0.250000  0.354614  0.435104  1.0
  Ir  Ir11  1  0.750000  0.645386  0.564896  1.0
  Ir  Ir12  1  0.750000  0.145386  0.935104  1.0
