# generated using pymatgen
data_SrZnCl4
_symmetry_space_group_name_H-M   'P 1'
_cell_length_a   6.56320332
_cell_length_b   6.56320331
_cell_length_c   8.66220613
_cell_angle_alpha   112.26193019
_cell_angle_beta   112.26193021
_cell_angle_gamma   90.00000003
_symmetry_Int_Tables_number   1
_chemical_formula_structural   SrZnCl4
_chemical_formula_sum   'Sr2 Zn2 Cl8'
_cell_volume   315.05933751
_cell_formula_units_Z   2
loop_
 _symmetry_equiv_pos_site_id
 _symmetry_equiv_pos_as_xyz
  1  'x, y, z'
loop_
 _atom_site_type_symbol
 _atom_site_label
 _atom_site_symmetry_multiplicity
 _atom_site_fract_x
 _atom_site_fract_y
 _atom_site_fract_z
 _atom_site_occupancy
  Sr  Sr1  1  0.875000  0.625000  0.750000  1.0
  Sr  Sr2  1  0.125000  0.375000  0.250000  1.0
  Zn  Zn3  1  0.625000  0.875000  0.250000  1.0
  Zn  Zn4  1  0.375000  0.125000  0.750000  1.0
  Cl  Cl5  1  0.715511  0.362043  0.911858  1.0
  Cl  Cl6  1  0.862043  0.696346  0.411858  1.0
  Cl  Cl7  1  0.284489  0.637957  0.088142  1.0
  Cl  Cl8  1  0.450186  0.784489  0.588142  1.0
  Cl  Cl9  1  0.549814  0.215511  0.411858  1.0
  Cl  Cl10  1  0.803654  0.950186  0.088142  1.0
  Cl  Cl11  1  0.137957  0.303654  0.588142  1.0
  Cl  Cl12  1  0.196346  0.049814  0.911858  1.0
