# generated using pymatgen
data_CeAl5Ni2
_symmetry_space_group_name_H-M   'P 1'
_cell_length_a   3.98218799
_cell_length_b   6.23454288
_cell_length_c   6.23454288
_cell_angle_alpha   68.63259717
_cell_angle_beta   71.37548055
_cell_angle_gamma   71.37548055
_symmetry_Int_Tables_number   1
_chemical_formula_structural   CeAl5Ni2
_chemical_formula_sum   'Ce1 Al5 Ni2'
_cell_volume   132.93436172
_cell_formula_units_Z   1
loop_
 _symmetry_equiv_pos_site_id
 _symmetry_equiv_pos_as_xyz
  1  'x, y, z'
loop_
 _atom_site_type_symbol
 _atom_site_label
 _atom_site_symmetry_multiplicity
 _atom_site_fract_x
 _atom_site_fract_y
 _atom_site_fract_z
 _atom_site_occupancy
  Ce  Ce1  1  0.000000  0.000000  0.000000  1.0
  Al  Al2  1  0.000000  0.500000  0.500000  1.0
  Al  Al3  1  0.656205  0.153717  0.533873  1.0
  Al  Al4  1  0.343795  0.846283  0.466127  1.0
  Al  Al5  1  0.343795  0.466127  0.846283  1.0
  Al  Al6  1  0.656205  0.533873  0.153717  1.0
  Ni  Ni7  1  0.757823  0.742177  0.742177  1.0
  Ni  Ni8  1  0.242177  0.257823  0.257823  1.0
