# generated using pymatgen
data_CuAgTe2
_symmetry_space_group_name_H-M   'P 1'
_cell_length_a   3.14947927
_cell_length_b   4.28999012
_cell_length_c   7.61207032
_cell_angle_alpha   90.00000000
_cell_angle_beta   90.00000000
_cell_angle_gamma   90.00000000
_symmetry_Int_Tables_number   1
_chemical_formula_structural   CuAgTe2
_chemical_formula_sum   'Cu1 Ag1 Te2'
_cell_volume   102.84847056
_cell_formula_units_Z   1
loop_
 _symmetry_equiv_pos_site_id
 _symmetry_equiv_pos_as_xyz
  1  'x, y, z'
loop_
 _atom_site_type_symbol
 _atom_site_label
 _atom_site_symmetry_multiplicity
 _atom_site_fract_x
 _atom_site_fract_y
 _atom_site_fract_z
 _atom_site_occupancy
  Cu  Cu1  1  0.500000  0.000000  0.564060  1.0
  Ag  Ag2  1  0.000000  0.500000  0.445183  1.0
  Te  Te3  1  0.000000  0.000000  0.217870  1.0
  Te  Te4  1  0.500000  0.500000  0.772887  1.0
