# generated using pymatgen
data_ZrSiO4
_symmetry_space_group_name_H-M   'P 1'
_cell_length_a   5.62319398
_cell_length_b   5.62319399
_cell_length_c   5.62319399
_cell_angle_alpha   106.76857643
_cell_angle_beta   106.76857646
_cell_angle_gamma   115.02328604
_symmetry_Int_Tables_number   1
_chemical_formula_structural   ZrSiO4
_chemical_formula_sum   'Zr2 Si2 O8'
_cell_volume   135.90266148
_cell_formula_units_Z   2
loop_
 _symmetry_equiv_pos_site_id
 _symmetry_equiv_pos_as_xyz
  1  'x, y, z'
loop_
 _atom_site_type_symbol
 _atom_site_label
 _atom_site_symmetry_multiplicity
 _atom_site_fract_x
 _atom_site_fract_y
 _atom_site_fract_z
 _atom_site_occupancy
  Zr  Zr1  1  0.125000  0.875000  0.250000  1.0
  Zr  Zr2  1  0.875000  0.125000  0.750000  1.0
  Si  Si3  1  0.625000  0.375000  0.250000  1.0
  Si  Si4  1  0.375000  0.625000  0.750000  1.0
  O  O5  1  0.804925  0.371740  0.066815  1.0
  O  O6  1  0.738110  0.804925  0.933185  1.0
  O  O7  1  0.371740  0.804925  0.566815  1.0
  O  O8  1  0.804925  0.738110  0.433185  1.0
  O  O9  1  0.261890  0.195075  0.066815  1.0
  O  O10  1  0.195075  0.628260  0.933185  1.0
  O  O11  1  0.195075  0.261890  0.566815  1.0
  O  O12  1  0.628260  0.195075  0.433185  1.0
