# generated using pymatgen
data_NaZnP
_symmetry_space_group_name_H-M   'P 1'
_cell_length_a   4.06975150
_cell_length_b   4.06975150
_cell_length_c   6.92856851
_cell_angle_alpha   90.00000000
_cell_angle_beta   90.00000000
_cell_angle_gamma   90.00000000
_symmetry_Int_Tables_number   1
_chemical_formula_structural   NaZnP
_chemical_formula_sum   'Na2 Zn2 P2'
_cell_volume   114.75702990
_cell_formula_units_Z   2
loop_
 _symmetry_equiv_pos_site_id
 _symmetry_equiv_pos_as_xyz
  1  'x, y, z'
loop_
 _atom_site_type_symbol
 _atom_site_label
 _atom_site_symmetry_multiplicity
 _atom_site_fract_x
 _atom_site_fract_y
 _atom_site_fract_z
 _atom_site_occupancy
  Na  Na1  1  0.750000  0.750000  0.643928  1.0
  Na  Na2  1  0.250000  0.250000  0.356072  1.0
  Zn  Zn3  1  0.750000  0.250000  0.000000  1.0
  Zn  Zn4  1  0.250000  0.750000  0.000000  1.0
  P  P5  1  0.250000  0.250000  0.787713  1.0
  P  P6  1  0.750000  0.750000  0.212287  1.0
