# generated using pymatgen
data_GaCuSe2
_symmetry_space_group_name_H-M   'P 1'
_cell_length_a   5.66779333
_cell_length_b   5.66779333
_cell_length_c   6.90834855
_cell_angle_alpha   114.21823660
_cell_angle_beta   114.21823663
_cell_angle_gamma   89.99999999
_symmetry_Int_Tables_number   1
_chemical_formula_structural   GaCuSe2
_chemical_formula_sum   'Ga2 Cu2 Se4'
_cell_volume   180.76167920
_cell_formula_units_Z   2
loop_
 _symmetry_equiv_pos_site_id
 _symmetry_equiv_pos_as_xyz
  1  'x, y, z'
loop_
 _atom_site_type_symbol
 _atom_site_label
 _atom_site_symmetry_multiplicity
 _atom_site_fract_x
 _atom_site_fract_y
 _atom_site_fract_z
 _atom_site_occupancy
  Ga  Ga1  1  0.500000  0.500000  0.000000  1.0
  Ga  Ga2  1  0.750000  0.250000  0.500000  1.0
  Cu  Cu3  1  0.000000  0.000000  0.000000  1.0
  Cu  Cu4  1  0.250000  0.750000  0.500000  1.0
  Se  Se5  1  0.369119  0.375000  0.250000  1.0
  Se  Se6  1  0.125000  0.630881  0.750000  1.0
  Se  Se7  1  0.625000  0.119119  0.750000  1.0
  Se  Se8  1  0.880881  0.875000  0.250000  1.0
