# generated using pymatgen
data_Y(CuSi)2
_symmetry_space_group_name_H-M   'P 1'
_cell_length_a   3.96766224
_cell_length_b   3.96766253
_cell_length_c   5.72780516
_cell_angle_alpha   110.26429189
_cell_angle_beta   110.26429757
_cell_angle_gamma   89.99999959
_symmetry_Int_Tables_number   1
_chemical_formula_structural   Y(CuSi)2
_chemical_formula_sum   'Y1 Cu2 Si2'
_cell_volume   78.61181559
_cell_formula_units_Z   1
loop_
 _symmetry_equiv_pos_site_id
 _symmetry_equiv_pos_as_xyz
  1  'x, y, z'
loop_
 _atom_site_type_symbol
 _atom_site_label
 _atom_site_symmetry_multiplicity
 _atom_site_fract_x
 _atom_site_fract_y
 _atom_site_fract_z
 _atom_site_occupancy
  Y  Y1  1  0.000000  0.000000  0.000000  1.0
  Cu  Cu2  1  0.750000  0.250000  0.500000  1.0
  Cu  Cu3  1  0.250000  0.750000  0.500000  1.0
  Si  Si4  1  0.617661  0.617661  0.235322  1.0
  Si  Si5  1  0.382339  0.382339  0.764678  1.0
