# generated using pymatgen
data_NdScGe
_symmetry_space_group_name_H-M   'P 1'
_cell_length_a   4.32580151
_cell_length_b   4.32580152
_cell_length_c   8.57562553
_cell_angle_alpha   104.60861883
_cell_angle_beta   104.60861888
_cell_angle_gamma   89.99999998
_symmetry_Int_Tables_number   1
_chemical_formula_structural   NdScGe
_chemical_formula_sum   'Nd2 Sc2 Ge2'
_cell_volume   149.91676411
_cell_formula_units_Z   2
loop_
 _symmetry_equiv_pos_site_id
 _symmetry_equiv_pos_as_xyz
  1  'x, y, z'
loop_
 _atom_site_type_symbol
 _atom_site_label
 _atom_site_symmetry_multiplicity
 _atom_site_fract_x
 _atom_site_fract_y
 _atom_site_fract_z
 _atom_site_occupancy
  Nd  Nd1  1  0.676565  0.676565  0.353130  1.0
  Nd  Nd2  1  0.323435  0.323435  0.646870  1.0
  Sc  Sc3  1  0.000000  0.500000  0.000000  1.0
  Sc  Sc4  1  0.500000  0.000000  0.000000  1.0
  Ge  Ge5  1  0.122950  0.122950  0.245901  1.0
  Ge  Ge6  1  0.877050  0.877050  0.754099  1.0
