# generated using pymatgen
data_Ba(ZnP)2
_symmetry_space_group_name_H-M   'P 1'
_cell_length_a   4.04107428
_cell_length_b   4.04107428
_cell_length_c   7.25043110
_cell_angle_alpha   106.18133182
_cell_angle_beta   106.18133181
_cell_angle_gamma   89.99999993
_symmetry_Int_Tables_number   1
_chemical_formula_structural   Ba(ZnP)2
_chemical_formula_sum   'Ba1 Zn2 P2'
_cell_volume   108.81851849
_cell_formula_units_Z   1
loop_
 _symmetry_equiv_pos_site_id
 _symmetry_equiv_pos_as_xyz
  1  'x, y, z'
loop_
 _atom_site_type_symbol
 _atom_site_label
 _atom_site_symmetry_multiplicity
 _atom_site_fract_x
 _atom_site_fract_y
 _atom_site_fract_z
 _atom_site_occupancy
  Ba  Ba1  1  0.000000  0.000000  0.000000  1.0
  Zn  Zn2  1  0.250000  0.750000  0.500000  1.0
  Zn  Zn3  1  0.750000  0.250000  0.500000  1.0
  P  P4  1  0.640220  0.640220  0.280441  1.0
  P  P5  1  0.359780  0.359780  0.719559  1.0
