# generated using pymatgen
data_MnP4
_symmetry_space_group_name_H-M   'P 1'
_cell_length_a   5.10977071
_cell_length_b   5.83587347
_cell_length_c   5.86821542
_cell_angle_alpha   107.34320444
_cell_angle_beta   115.84281548
_cell_angle_gamma   93.75419288
_symmetry_Int_Tables_number   1
_chemical_formula_structural   MnP4
_chemical_formula_sum   'Mn2 P8'
_cell_volume   146.38879447
_cell_formula_units_Z   2
loop_
 _symmetry_equiv_pos_site_id
 _symmetry_equiv_pos_as_xyz
  1  'x, y, z'
loop_
 _atom_site_type_symbol
 _atom_site_label
 _atom_site_symmetry_multiplicity
 _atom_site_fract_x
 _atom_site_fract_y
 _atom_site_fract_z
 _atom_site_occupancy
  Mn  Mn1  1  0.786304  0.275961  0.784675  1.0
  Mn  Mn2  1  0.213696  0.724039  0.215325  1.0
  P  P3  1  0.397916  0.803144  0.954977  1.0
  P  P4  1  0.602084  0.196856  0.045023  1.0
  P  P5  1  0.939139  0.304838  0.489749  1.0
  P  P6  1  0.060861  0.695162  0.510251  1.0
  P  P7  1  0.246079  0.331251  0.119761  1.0
  P  P8  1  0.753921  0.668749  0.880239  1.0
  P  P9  1  0.303362  0.151038  0.422255  1.0
  P  P10  1  0.696638  0.848962  0.577745  1.0
