# generated using pymatgen
data_GaCl3
_symmetry_space_group_name_H-M   'P 1'
_cell_length_a   7.48598934
_cell_length_b   7.30181983
_cell_length_c   7.28575466
_cell_angle_alpha   61.38530414
_cell_angle_beta   59.08662653
_cell_angle_gamma   59.16208213
_symmetry_Int_Tables_number   1
_chemical_formula_structural   GaCl3
_chemical_formula_sum   'Ga2 Cl6'
_cell_volume   280.52777467
_cell_formula_units_Z   2
loop_
 _symmetry_equiv_pos_site_id
 _symmetry_equiv_pos_as_xyz
  1  'x, y, z'
loop_
 _atom_site_type_symbol
 _atom_site_label
 _atom_site_symmetry_multiplicity
 _atom_site_fract_x
 _atom_site_fract_y
 _atom_site_fract_z
 _atom_site_occupancy
  Ga  Ga1  1  0.344749  0.084305  0.226196  1.0
  Ga  Ga2  1  0.655251  0.915695  0.773804  1.0
  Cl  Cl3  1  0.721253  0.000000  0.000000  1.0
  Cl  Cl4  1  0.278747  0.000000  0.000000  1.0
  Cl  Cl5  1  0.689436  0.164912  0.456216  1.0
  Cl  Cl6  1  0.310564  0.835088  0.543784  1.0
  Cl  Cl7  1  0.813092  0.569365  0.804451  1.0
  Cl  Cl8  1  0.186908  0.430635  0.195549  1.0
