# generated using pymatgen
data_GdTaO4
_symmetry_space_group_name_H-M   'P 1'
_cell_length_a   5.20650229
_cell_length_b   5.39476313
_cell_length_c   5.58290041
_cell_angle_alpha   90.00000000
_cell_angle_beta   90.00000000
_cell_angle_gamma   96.74664578
_symmetry_Int_Tables_number   1
_chemical_formula_structural   GdTaO4
_chemical_formula_sum   'Gd2 Ta2 O8'
_cell_volume   155.72578228
_cell_formula_units_Z   2
loop_
 _symmetry_equiv_pos_site_id
 _symmetry_equiv_pos_as_xyz
  1  'x, y, z'
loop_
 _atom_site_type_symbol
 _atom_site_label
 _atom_site_symmetry_multiplicity
 _atom_site_fract_x
 _atom_site_fract_y
 _atom_site_fract_z
 _atom_site_occupancy
  Gd  Gd1  1  0.000000  0.750000  0.767378  1.0
  Gd  Gd2  1  0.000000  0.250000  0.232622  1.0
  Ta  Ta3  1  0.500000  0.250000  0.689312  1.0
  Ta  Ta4  1  0.500000  0.750000  0.310688  1.0
  O  O5  1  0.727965  0.004350  0.564703  1.0
  O  O6  1  0.272035  0.495650  0.564703  1.0
  O  O7  1  0.272035  0.995650  0.435297  1.0
  O  O8  1  0.727965  0.504350  0.435297  1.0
  O  O9  1  0.251959  0.604977  0.089942  1.0
  O  O10  1  0.748041  0.895023  0.089942  1.0
  O  O11  1  0.748041  0.395023  0.910058  1.0
  O  O12  1  0.251959  0.104977  0.910058  1.0
