# generated using pymatgen
data_BaCeN2
_symmetry_space_group_name_H-M   'P 1'
_cell_length_a   3.69799927
_cell_length_b   3.69799927
_cell_length_c   12.69540284
_cell_angle_alpha   90.00000000
_cell_angle_beta   90.00000000
_cell_angle_gamma   119.99999994
_symmetry_Int_Tables_number   1
_chemical_formula_structural   BaCeN2
_chemical_formula_sum   'Ba2 Ce2 N4'
_cell_volume   150.35253686
_cell_formula_units_Z   2
loop_
 _symmetry_equiv_pos_site_id
 _symmetry_equiv_pos_as_xyz
  1  'x, y, z'
loop_
 _atom_site_type_symbol
 _atom_site_label
 _atom_site_symmetry_multiplicity
 _atom_site_fract_x
 _atom_site_fract_y
 _atom_site_fract_z
 _atom_site_occupancy
  Ba  Ba1  1  0.333333  0.666667  0.750000  1.0
  Ba  Ba2  1  0.666667  0.333333  0.250000  1.0
  Ce  Ce3  1  0.000000  0.000000  0.000000  1.0
  Ce  Ce4  1  0.000000  0.000000  0.500000  1.0
  N  N5  1  0.333333  0.666667  0.404179  1.0
  N  N6  1  0.666667  0.333333  0.904179  1.0
  N  N7  1  0.333333  0.666667  0.095821  1.0
  N  N8  1  0.666667  0.333333  0.595821  1.0
