# generated using pymatgen
data_UTeAs
_symmetry_space_group_name_H-M   'P 1'
_cell_length_a   4.16736655
_cell_length_b   4.16736654
_cell_length_c   9.09444418
_cell_angle_alpha   103.24503644
_cell_angle_beta   103.24503645
_cell_angle_gamma   90.00000000
_symmetry_Int_Tables_number   1
_chemical_formula_structural   UTeAs
_chemical_formula_sum   'U2 Te2 As2'
_cell_volume   149.42178129
_cell_formula_units_Z   2
loop_
 _symmetry_equiv_pos_site_id
 _symmetry_equiv_pos_as_xyz
  1  'x, y, z'
loop_
 _atom_site_type_symbol
 _atom_site_label
 _atom_site_symmetry_multiplicity
 _atom_site_fract_x
 _atom_site_fract_y
 _atom_site_fract_z
 _atom_site_occupancy
  U  U1  1  0.118252  0.118252  0.236503  1.0
  U  U2  1  0.881748  0.881748  0.763497  1.0
  Te  Te3  1  0.314498  0.314498  0.628996  1.0
  Te  Te4  1  0.685502  0.685502  0.371004  1.0
  As  As5  1  0.500000  0.000000  0.000000  1.0
  As  As6  1  0.000000  0.500000  0.000000  1.0
