# generated using pymatgen
data_Dy2AlGe2
_symmetry_space_group_name_H-M   'P 1'
_cell_length_a   4.31424537
_cell_length_b   7.01876403
_cell_length_c   7.01876403
_cell_angle_alpha   90.00000000
_cell_angle_beta   90.00000000
_cell_angle_gamma   90.00000000
_symmetry_Int_Tables_number   1
_chemical_formula_structural   Dy2AlGe2
_chemical_formula_sum   'Dy4 Al2 Ge4'
_cell_volume   212.53287894
_cell_formula_units_Z   2
loop_
 _symmetry_equiv_pos_site_id
 _symmetry_equiv_pos_as_xyz
  1  'x, y, z'
loop_
 _atom_site_type_symbol
 _atom_site_label
 _atom_site_symmetry_multiplicity
 _atom_site_fract_x
 _atom_site_fract_y
 _atom_site_fract_z
 _atom_site_occupancy
  Dy  Dy1  1  0.500000  0.823728  0.323728  1.0
  Dy  Dy2  1  0.500000  0.676272  0.823728  1.0
  Dy  Dy3  1  0.500000  0.323728  0.176272  1.0
  Dy  Dy4  1  0.500000  0.176272  0.676272  1.0
  Al  Al5  1  0.000000  0.500000  0.500000  1.0
  Al  Al6  1  0.000000  0.000000  0.000000  1.0
  Ge  Ge7  1  0.000000  0.370606  0.870606  1.0
  Ge  Ge8  1  0.000000  0.129394  0.370606  1.0
  Ge  Ge9  1  0.000000  0.629394  0.129394  1.0
  Ge  Ge10  1  0.000000  0.870606  0.629394  1.0
