# generated using pymatgen
data_Cs2PdI6
_symmetry_space_group_name_H-M   'P 1'
_cell_length_a   8.02320413
_cell_length_b   8.02320412
_cell_length_c   8.02320412
_cell_angle_alpha   108.87867590
_cell_angle_beta   109.76830293
_cell_angle_gamma   109.76830303
_symmetry_Int_Tables_number   1
_chemical_formula_structural   Cs2PdI6
_chemical_formula_sum   'Cs2 Pd1 I6'
_cell_volume   397.54549694
_cell_formula_units_Z   1
loop_
 _symmetry_equiv_pos_site_id
 _symmetry_equiv_pos_as_xyz
  1  'x, y, z'
loop_
 _atom_site_type_symbol
 _atom_site_label
 _atom_site_symmetry_multiplicity
 _atom_site_fract_x
 _atom_site_fract_y
 _atom_site_fract_z
 _atom_site_occupancy
  Cs  Cs1  1  0.500000  0.750000  0.250000  1.0
  Cs  Cs2  1  0.500000  0.250000  0.750000  1.0
  Pd  Pd3  1  0.000000  0.000000  0.000000  1.0
  I  I4  1  0.000000  0.795854  0.204146  1.0
  I  I5  1  0.000000  0.345785  0.345785  1.0
  I  I6  1  0.591707  0.795854  0.795854  1.0
  I  I7  1  0.000000  0.204146  0.795854  1.0
  I  I8  1  0.408293  0.204146  0.204146  1.0
  I  I9  1  0.000000  0.654215  0.654215  1.0
