# generated using pymatgen
data_Y2MgCu2
_symmetry_space_group_name_H-M   'P 1'
_cell_length_a   3.67632884
_cell_length_b   7.68482779
_cell_length_c   7.68482779
_cell_angle_alpha   90.00000000
_cell_angle_beta   90.00000000
_cell_angle_gamma   90.00000000
_symmetry_Int_Tables_number   1
_chemical_formula_structural   Y2MgCu2
_chemical_formula_sum   'Y4 Mg2 Cu4'
_cell_volume   217.11140149
_cell_formula_units_Z   2
loop_
 _symmetry_equiv_pos_site_id
 _symmetry_equiv_pos_as_xyz
  1  'x, y, z'
loop_
 _atom_site_type_symbol
 _atom_site_label
 _atom_site_symmetry_multiplicity
 _atom_site_fract_x
 _atom_site_fract_y
 _atom_site_fract_z
 _atom_site_occupancy
  Y  Y1  1  0.500000  0.328796  0.828796  1.0
  Y  Y2  1  0.500000  0.171204  0.328796  1.0
  Y  Y3  1  0.500000  0.828796  0.671204  1.0
  Y  Y4  1  0.500000  0.671204  0.171204  1.0
  Mg  Mg5  1  0.000000  0.500000  0.500000  1.0
  Mg  Mg6  1  0.000000  0.000000  0.000000  1.0
  Cu  Cu7  1  0.000000  0.878388  0.378388  1.0
  Cu  Cu8  1  0.000000  0.621612  0.878388  1.0
  Cu  Cu9  1  0.000000  0.121612  0.621612  1.0
  Cu  Cu10  1  0.000000  0.378388  0.121612  1.0
