# generated using pymatgen
data_Tm(CuSi)2
_symmetry_space_group_name_H-M   'P 1'
_cell_length_a   3.93009218
_cell_length_b   3.93009217
_cell_length_c   5.72059200
_cell_angle_alpha   110.09049963
_cell_angle_beta   110.09049953
_cell_angle_gamma   90.00000000
_symmetry_Int_Tables_number   1
_chemical_formula_structural   Tm(CuSi)2
_chemical_formula_sum   'Tm1 Cu2 Si2'
_cell_volume   77.23176843
_cell_formula_units_Z   1
loop_
 _symmetry_equiv_pos_site_id
 _symmetry_equiv_pos_as_xyz
  1  'x, y, z'
loop_
 _atom_site_type_symbol
 _atom_site_label
 _atom_site_symmetry_multiplicity
 _atom_site_fract_x
 _atom_site_fract_y
 _atom_site_fract_z
 _atom_site_occupancy
  Tm  Tm1  1  0.000000  0.000000  0.000000  1.0
  Cu  Cu2  1  0.750000  0.250000  0.500000  1.0
  Cu  Cu3  1  0.250000  0.750000  0.500000  1.0
  Si  Si4  1  0.616276  0.616276  0.232553  1.0
  Si  Si5  1  0.383724  0.383724  0.767447  1.0
