# generated using pymatgen
data_Sr2Cu(ClO)2
_symmetry_space_group_name_H-M   'P 1'
_cell_length_a   3.98960963
_cell_length_b   3.98960963
_cell_length_c   8.51377180
_cell_angle_alpha   103.55055818
_cell_angle_beta   103.55055814
_cell_angle_gamma   89.99999994
_symmetry_Int_Tables_number   1
_chemical_formula_structural   Sr2Cu(ClO)2
_chemical_formula_sum   'Sr2 Cu1 Cl2 O2'
_cell_volume   127.85789959
_cell_formula_units_Z   1
loop_
 _symmetry_equiv_pos_site_id
 _symmetry_equiv_pos_as_xyz
  1  'x, y, z'
loop_
 _atom_site_type_symbol
 _atom_site_label
 _atom_site_symmetry_multiplicity
 _atom_site_fract_x
 _atom_site_fract_y
 _atom_site_fract_z
 _atom_site_occupancy
  Sr  Sr1  1  0.606459  0.606459  0.212918  1.0
  Sr  Sr2  1  0.393541  0.393541  0.787082  1.0
  Cu  Cu3  1  0.000000  0.000000  0.000000  1.0
  Cl  Cl4  1  0.182409  0.182409  0.364818  1.0
  Cl  Cl5  1  0.817591  0.817591  0.635182  1.0
  O  O6  1  0.500000  0.000000  0.000000  1.0
  O  O7  1  0.000000  0.500000  0.000000  1.0
