# generated using pymatgen
data_InSe
_symmetry_space_group_name_H-M   'P 1'
_cell_length_a   4.14491478
_cell_length_b   5.23058815
_cell_length_c   11.08762667
_cell_angle_alpha   96.60447050
_cell_angle_beta   90.00000000
_cell_angle_gamma   90.00000000
_symmetry_Int_Tables_number   1
_chemical_formula_structural   InSe
_chemical_formula_sum   'In4 Se4'
_cell_volume   238.78830509
_cell_formula_units_Z   4
loop_
 _symmetry_equiv_pos_site_id
 _symmetry_equiv_pos_as_xyz
  1  'x, y, z'
loop_
 _atom_site_type_symbol
 _atom_site_label
 _atom_site_symmetry_multiplicity
 _atom_site_fract_x
 _atom_site_fract_y
 _atom_site_fract_z
 _atom_site_occupancy
  In  In1  1  0.500000  0.337788  0.388071  1.0
  In  In2  1  0.500000  0.662212  0.611929  1.0
  In  In3  1  0.000000  0.162212  0.111929  1.0
  In  In4  1  0.000000  0.837788  0.888071  1.0
  Se  Se5  1  0.500000  0.490741  0.161512  1.0
  Se  Se6  1  0.500000  0.509259  0.838488  1.0
  Se  Se7  1  0.000000  0.009259  0.338488  1.0
  Se  Se8  1  0.000000  0.990741  0.661512  1.0
