# generated using pymatgen
data_Ge3C
_symmetry_space_group_name_H-M   'P 1'
_cell_length_a   5.75429118
_cell_length_b   5.75428960
_cell_length_c   4.45729337
_cell_angle_alpha   90.00000000
_cell_angle_beta   90.00000000
_cell_angle_gamma   119.99999748
_symmetry_Int_Tables_number   1
_chemical_formula_structural   Ge3C
_chemical_formula_sum   'Ge6 C2'
_cell_volume   127.81605576
_cell_formula_units_Z   2
loop_
 _symmetry_equiv_pos_site_id
 _symmetry_equiv_pos_as_xyz
  1  'x, y, z'
loop_
 _atom_site_type_symbol
 _atom_site_label
 _atom_site_symmetry_multiplicity
 _atom_site_fract_x
 _atom_site_fract_y
 _atom_site_fract_z
 _atom_site_occupancy
  Ge  Ge1  1  0.175812  0.351625  0.250001  1.0
  Ge  Ge2  1  0.648373  0.824187  0.250001  1.0
  Ge  Ge3  1  0.175811  0.824187  0.250001  1.0
  Ge  Ge4  1  0.824186  0.648373  0.750000  1.0
  Ge  Ge5  1  0.351626  0.175813  0.750000  1.0
  Ge  Ge6  1  0.824188  0.175813  0.750000  1.0
  C  C7  1  0.333334  0.666667  0.750000  1.0
  C  C8  1  0.666666  0.333333  0.250001  1.0
