# generated using pymatgen
data_Zn(InS2)2
_symmetry_space_group_name_H-M   'P 1'
_cell_length_a   3.92356100
_cell_length_b   3.92356100
_cell_length_c   26.60876922
_cell_angle_alpha   90.00000000
_cell_angle_beta   90.00000000
_cell_angle_gamma   119.99999999
_symmetry_Int_Tables_number   1
_chemical_formula_structural   Zn(InS2)2
_chemical_formula_sum   'Zn2 In4 S8'
_cell_volume   354.74496217
_cell_formula_units_Z   2
loop_
 _symmetry_equiv_pos_site_id
 _symmetry_equiv_pos_as_xyz
  1  'x, y, z'
loop_
 _atom_site_type_symbol
 _atom_site_label
 _atom_site_symmetry_multiplicity
 _atom_site_fract_x
 _atom_site_fract_y
 _atom_site_fract_z
 _atom_site_occupancy
  Zn  Zn1  1  0.333333  0.666667  0.578369  1.0
  Zn  Zn2  1  0.666667  0.333333  0.421631  1.0
  In  In3  1  0.333333  0.666667  0.106124  1.0
  In  In4  1  0.666667  0.333333  0.893876  1.0
  In  In5  1  0.000000  0.000000  0.742423  1.0
  In  In6  1  0.000000  0.000000  0.257577  1.0
  S  S7  1  0.666667  0.333333  0.571832  1.0
  S  S8  1  0.333333  0.666667  0.196731  1.0
  S  S9  1  0.666667  0.333333  0.063323  1.0
  S  S10  1  0.333333  0.666667  0.936677  1.0
  S  S11  1  0.666667  0.333333  0.803269  1.0
  S  S12  1  0.666667  0.333333  0.303051  1.0
  S  S13  1  0.333333  0.666667  0.428168  1.0
  S  S14  1  0.333333  0.666667  0.696949  1.0
