# generated using pymatgen
data_Yb(SiPt)2
_symmetry_space_group_name_H-M   'P 1'
_cell_length_a   4.23130883
_cell_length_b   4.23130883
_cell_length_c   5.74477947
_cell_angle_alpha   111.60922585
_cell_angle_beta   111.60922584
_cell_angle_gamma   90.00000003
_symmetry_Int_Tables_number   1
_chemical_formula_structural   Yb(SiPt)2
_chemical_formula_sum   'Yb1 Si2 Pt2'
_cell_volume   87.80344152
_cell_formula_units_Z   1
loop_
 _symmetry_equiv_pos_site_id
 _symmetry_equiv_pos_as_xyz
  1  'x, y, z'
loop_
 _atom_site_type_symbol
 _atom_site_label
 _atom_site_symmetry_multiplicity
 _atom_site_fract_x
 _atom_site_fract_y
 _atom_site_fract_z
 _atom_site_occupancy
  Yb  Yb1  1  0.000000  0.000000  0.000000  1.0
  Si  Si2  1  0.621775  0.621775  0.243551  1.0
  Si  Si3  1  0.378225  0.378225  0.756449  1.0
  Pt  Pt4  1  0.250000  0.750000  0.500000  1.0
  Pt  Pt5  1  0.750000  0.250000  0.500000  1.0
