# generated using pymatgen
data_Te(HO)6
_symmetry_space_group_name_H-M   'P 1'
_cell_length_a   6.54252084
_cell_length_b   8.38834733
_cell_length_c   9.44044010
_cell_angle_alpha   90.00000000
_cell_angle_beta   90.00000000
_cell_angle_gamma   100.06037964
_symmetry_Int_Tables_number   1
_chemical_formula_structural   Te(HO)6
_chemical_formula_sum   'Te4 H24 O24'
_cell_volume   510.13400144
_cell_formula_units_Z   4
loop_
 _symmetry_equiv_pos_site_id
 _symmetry_equiv_pos_as_xyz
  1  'x, y, z'
loop_
 _atom_site_type_symbol
 _atom_site_label
 _atom_site_symmetry_multiplicity
 _atom_site_fract_x
 _atom_site_fract_y
 _atom_site_fract_z
 _atom_site_occupancy
  Te  Te1  1  0.500000  0.000000  0.500000  1.0
  Te  Te2  1  0.500000  0.500000  0.000000  1.0
  Te  Te3  1  0.000000  0.500000  0.500000  1.0
  Te  Te4  1  0.000000  0.000000  0.000000  1.0
  H  H5  1  0.292463  0.303650  0.833664  1.0
  H  H6  1  0.707537  0.196350  0.333664  1.0
  H  H7  1  0.707537  0.696350  0.166336  1.0
  H  H8  1  0.292463  0.803650  0.666336  1.0
  H  H9  1  0.685742  0.762695  0.463762  1.0
  H  H10  1  0.314258  0.737305  0.963762  1.0
  H  H11  1  0.754262  0.012847  0.701037  1.0
  H  H12  1  0.245738  0.487153  0.201037  1.0
  H  H13  1  0.245738  0.987153  0.298963  1.0
  H  H14  1  0.754262  0.512847  0.798963  1.0
  H  H15  1  0.649251  0.372590  0.593275  1.0
  H  H16  1  0.350749  0.127410  0.093275  1.0
  H  H17  1  0.350749  0.627410  0.406725  1.0
  H  H18  1  0.649251  0.872590  0.906725  1.0
  H  H19  1  0.958395  0.206093  0.569936  1.0
  H  H20  1  0.041605  0.293907  0.069936  1.0
  H  H21  1  0.041605  0.793907  0.430064  1.0
  H  H22  1  0.958395  0.706093  0.930064  1.0
  H  H23  1  0.231333  0.030343  0.785473  1.0
  H  H24  1  0.768667  0.469657  0.285473  1.0
  H  H25  1  0.768667  0.969657  0.214527  1.0
  H  H26  1  0.231333  0.530343  0.714527  1.0
  H  H27  1  0.314258  0.237305  0.536238  1.0
  H  H28  1  0.685742  0.262695  0.036238  1.0
  O  O29  1  0.356635  0.921205  0.674524  1.0
  O  O30  1  0.643365  0.578795  0.174524  1.0
  O  O31  1  0.643365  0.078795  0.325476  1.0
  O  O32  1  0.356635  0.421205  0.825476  1.0
  O  O33  1  0.539277  0.281890  0.048931  1.0
  O  O34  1  0.460723  0.218110  0.548931  1.0
  O  O35  1  0.765954  0.046479  0.598321  1.0
  O  O36  1  0.234046  0.453521  0.098321  1.0
  O  O37  1  0.234046  0.953521  0.401679  1.0
  O  O38  1  0.765954  0.546479  0.901679  1.0
  O  O39  1  0.761373  0.961908  0.872593  1.0
  O  O40  1  0.238627  0.538092  0.372593  1.0
  O  O41  1  0.238627  0.038092  0.127407  1.0
  O  O42  1  0.761373  0.461908  0.627407  1.0
  O  O43  1  0.080239  0.293430  0.547811  1.0
  O  O44  1  0.919761  0.206570  0.047811  1.0
  O  O45  1  0.919761  0.706570  0.452189  1.0
  O  O46  1  0.080239  0.793430  0.952189  1.0
  O  O47  1  0.165590  0.607690  0.655557  1.0
  O  O48  1  0.834410  0.892310  0.155557  1.0
  O  O49  1  0.834410  0.392310  0.344443  1.0
  O  O50  1  0.165590  0.107690  0.844443  1.0
  O  O51  1  0.460723  0.718110  0.951069  1.0
  O  O52  1  0.539277  0.781890  0.451069  1.0
