# generated using pymatgen
data_NaCd3
_symmetry_space_group_name_H-M   'P 1'
_cell_length_a   6.47798956
_cell_length_b   6.47798991
_cell_length_c   5.26305538
_cell_angle_alpha   90.00000000
_cell_angle_beta   90.00000000
_cell_angle_gamma   119.99563002
_symmetry_Int_Tables_number   1
_chemical_formula_structural   NaCd3
_chemical_formula_sum   'Na2 Cd6'
_cell_volume   191.27940181
_cell_formula_units_Z   2
loop_
 _symmetry_equiv_pos_site_id
 _symmetry_equiv_pos_as_xyz
  1  'x, y, z'
loop_
 _atom_site_type_symbol
 _atom_site_label
 _atom_site_symmetry_multiplicity
 _atom_site_fract_x
 _atom_site_fract_y
 _atom_site_fract_z
 _atom_site_occupancy
  Na  Na1  1  0.333314  0.666683  0.750000  1.0
  Na  Na2  1  0.666685  0.333315  0.250001  1.0
  Cd  Cd3  1  0.165568  0.330982  0.250001  1.0
  Cd  Cd4  1  0.669017  0.834431  0.250001  1.0
  Cd  Cd5  1  0.165478  0.834522  0.250001  1.0
  Cd  Cd6  1  0.834433  0.669019  0.750000  1.0
  Cd  Cd7  1  0.330983  0.165568  0.750000  1.0
  Cd  Cd8  1  0.834521  0.165479  0.750000  1.0
