# generated using pymatgen
data_SbPbClO2
_symmetry_space_group_name_H-M   'P 1'
_cell_length_a   5.50581271
_cell_length_b   5.67501766
_cell_length_c   6.89805068
_cell_angle_alpha   114.28962856
_cell_angle_beta   90.00000000
_cell_angle_gamma   90.00000000
_symmetry_Int_Tables_number   1
_chemical_formula_structural   SbPbClO2
_chemical_formula_sum   'Sb2 Pb2 Cl2 O4'
_cell_volume   196.45410356
_cell_formula_units_Z   2
loop_
 _symmetry_equiv_pos_site_id
 _symmetry_equiv_pos_as_xyz
  1  'x, y, z'
loop_
 _atom_site_type_symbol
 _atom_site_label
 _atom_site_symmetry_multiplicity
 _atom_site_fract_x
 _atom_site_fract_y
 _atom_site_fract_z
 _atom_site_occupancy
  Sb  Sb1  1  0.250000  0.922016  0.844032  1.0
  Sb  Sb2  1  0.750000  0.077984  0.155968  1.0
  Pb  Pb3  1  0.250000  0.618674  0.237347  1.0
  Pb  Pb4  1  0.750000  0.381326  0.762653  1.0
  Cl  Cl5  1  0.750000  0.747005  0.494010  1.0
  Cl  Cl6  1  0.250000  0.252995  0.505990  1.0
  O  O7  1  0.500000  0.227656  0.000000  1.0
  O  O8  1  0.000000  0.772344  0.000000  1.0
  O  O9  1  0.500000  0.772344  0.000000  1.0
  O  O10  1  0.000000  0.227656  0.000000  1.0
