# generated using pymatgen
data_Ca2Cu(ClO)2
_symmetry_space_group_name_H-M   'P 1'
_cell_length_a   3.88024558
_cell_length_b   3.88024558
_cell_length_c   8.12907204
_cell_angle_alpha   103.80774512
_cell_angle_beta   103.80774509
_cell_angle_gamma   89.99999999
_symmetry_Int_Tables_number   1
_chemical_formula_structural   Ca2Cu(ClO)2
_chemical_formula_sum   'Ca2 Cu1 Cl2 O2'
_cell_volume   115.21139803
_cell_formula_units_Z   1
loop_
 _symmetry_equiv_pos_site_id
 _symmetry_equiv_pos_as_xyz
  1  'x, y, z'
loop_
 _atom_site_type_symbol
 _atom_site_label
 _atom_site_symmetry_multiplicity
 _atom_site_fract_x
 _atom_site_fract_y
 _atom_site_fract_z
 _atom_site_occupancy
  Ca  Ca1  1  0.396353  0.396353  0.792707  1.0
  Ca  Ca2  1  0.603647  0.603647  0.207293  1.0
  Cu  Cu3  1  0.000000  0.000000  0.000000  1.0
  Cl  Cl4  1  0.182377  0.182377  0.364753  1.0
  Cl  Cl5  1  0.817623  0.817623  0.635247  1.0
  O  O6  1  0.500000  0.000000  0.000000  1.0
  O  O7  1  0.000000  0.500000  0.000000  1.0
