# generated using pymatgen
data_Ti2C
_symmetry_space_group_name_H-M   'P 1'
_cell_length_a   6.10876207
_cell_length_b   6.10876206
_cell_length_c   6.10876207
_cell_angle_alpha   60.00000002
_cell_angle_beta   60.00000005
_cell_angle_gamma   60.00000003
_symmetry_Int_Tables_number   1
_chemical_formula_structural   Ti2C
_chemical_formula_sum   'Ti8 C4'
_cell_volume   161.19242622
_cell_formula_units_Z   4
loop_
 _symmetry_equiv_pos_site_id
 _symmetry_equiv_pos_as_xyz
  1  'x, y, z'
loop_
 _atom_site_type_symbol
 _atom_site_label
 _atom_site_symmetry_multiplicity
 _atom_site_fract_x
 _atom_site_fract_y
 _atom_site_fract_z
 _atom_site_occupancy
  Ti  Ti1  1  0.768227  0.243924  0.243924  1.0
  Ti  Ti2  1  0.243924  0.768227  0.243924  1.0
  Ti  Ti3  1  0.243924  0.243924  0.768227  1.0
  Ti  Ti4  1  0.756076  0.756076  0.756076  1.0
  Ti  Ti5  1  0.756076  0.231773  0.756076  1.0
  Ti  Ti6  1  0.231773  0.756076  0.756076  1.0
  Ti  Ti7  1  0.756076  0.756076  0.231773  1.0
  Ti  Ti8  1  0.243924  0.243924  0.243924  1.0
  C  C9  1  0.000000  0.500000  0.000000  1.0
  C  C10  1  0.500000  0.000000  0.000000  1.0
  C  C11  1  0.000000  0.000000  0.500000  1.0
  C  C12  1  0.000000  0.000000  0.000000  1.0
