# generated using pymatgen
data_SrSn
_symmetry_space_group_name_H-M   'P 1'
_cell_length_a   4.53656223
_cell_length_b   5.09300678
_cell_length_c   6.62508020
_cell_angle_alpha   112.60483430
_cell_angle_beta   90.00000000
_cell_angle_gamma   90.00000000
_symmetry_Int_Tables_number   1
_chemical_formula_structural   SrSn
_chemical_formula_sum   'Sr2 Sn2'
_cell_volume   141.31153507
_cell_formula_units_Z   2
loop_
 _symmetry_equiv_pos_site_id
 _symmetry_equiv_pos_as_xyz
  1  'x, y, z'
loop_
 _atom_site_type_symbol
 _atom_site_label
 _atom_site_symmetry_multiplicity
 _atom_site_fract_x
 _atom_site_fract_y
 _atom_site_fract_z
 _atom_site_occupancy
  Sr  Sr1  1  0.250000  0.863734  0.727468  1.0
  Sr  Sr2  1  0.750000  0.136266  0.272532  1.0
  Sn  Sn3  1  0.250000  0.579591  0.159183  1.0
  Sn  Sn4  1  0.750000  0.420409  0.840817  1.0
