# generated using pymatgen
data_FeAgTe2
_symmetry_space_group_name_H-M   'P 1'
_cell_length_a   8.01933077
_cell_length_b   8.01933077
_cell_length_c   5.20107696
_cell_angle_alpha   90.00000000
_cell_angle_beta   90.00000000
_cell_angle_gamma   120.00000002
_symmetry_Int_Tables_number   1
_chemical_formula_structural   FeAgTe2
_chemical_formula_sum   'Fe3 Ag3 Te6'
_cell_volume   289.66776315
_cell_formula_units_Z   3
loop_
 _symmetry_equiv_pos_site_id
 _symmetry_equiv_pos_as_xyz
  1  'x, y, z'
loop_
 _atom_site_type_symbol
 _atom_site_label
 _atom_site_symmetry_multiplicity
 _atom_site_fract_x
 _atom_site_fract_y
 _atom_site_fract_z
 _atom_site_occupancy
  Fe  Fe1  1  0.500000  0.500000  0.500000  1.0
  Fe  Fe2  1  0.000000  0.500000  0.500000  1.0
  Fe  Fe3  1  0.500000  0.000000  0.500000  1.0
  Ag  Ag4  1  0.666667  0.333333  0.819645  1.0
  Ag  Ag5  1  0.333333  0.666667  0.180355  1.0
  Ag  Ag6  1  0.000000  0.000000  0.000000  1.0
  Te  Te7  1  0.186316  0.813684  0.752086  1.0
  Te  Te8  1  0.186316  0.372632  0.752086  1.0
  Te  Te9  1  0.627368  0.813684  0.752086  1.0
  Te  Te10  1  0.372632  0.186316  0.247914  1.0
  Te  Te11  1  0.813684  0.627368  0.247914  1.0
  Te  Te12  1  0.813684  0.186316  0.247914  1.0
