# generated using pymatgen
data_CuAuF5
_symmetry_space_group_name_H-M   'P 1'
_cell_length_a   3.78883932
_cell_length_b   5.14379782
_cell_length_c   5.54537341
_cell_angle_alpha   90.59332707
_cell_angle_beta   81.49594137
_cell_angle_gamma   72.57368025
_symmetry_Int_Tables_number   1
_chemical_formula_structural   CuAuF5
_chemical_formula_sum   'Cu1 Au1 F5'
_cell_volume   101.80880827
_cell_formula_units_Z   1
loop_
 _symmetry_equiv_pos_site_id
 _symmetry_equiv_pos_as_xyz
  1  'x, y, z'
loop_
 _atom_site_type_symbol
 _atom_site_label
 _atom_site_symmetry_multiplicity
 _atom_site_fract_x
 _atom_site_fract_y
 _atom_site_fract_z
 _atom_site_occupancy
  Cu  Cu1  1  0.000000  0.500000  0.500000  1.0
  Au  Au2  1  0.000000  0.000000  0.000000  1.0
  F  F3  1  0.500000  0.500000  0.500000  1.0
  F  F4  1  0.883037  0.847088  0.319390  1.0
  F  F5  1  0.181028  0.270996  0.164713  1.0
  F  F6  1  0.818972  0.729004  0.835287  1.0
  F  F7  1  0.116963  0.152912  0.680610  1.0
