# generated using pymatgen
data_Ca2GeN2
_symmetry_space_group_name_H-M   'P 1'
_cell_length_a   5.05587397
_cell_length_b   11.24799993
_cell_length_c   11.24799993
_cell_angle_alpha   90.00000000
_cell_angle_beta   90.00000000
_cell_angle_gamma   90.00000000
_symmetry_Int_Tables_number   1
_chemical_formula_structural   Ca2GeN2
_chemical_formula_sum   'Ca16 Ge8 N16'
_cell_volume   639.65654726
_cell_formula_units_Z   8
loop_
 _symmetry_equiv_pos_site_id
 _symmetry_equiv_pos_as_xyz
  1  'x, y, z'
loop_
 _atom_site_type_symbol
 _atom_site_label
 _atom_site_symmetry_multiplicity
 _atom_site_fract_x
 _atom_site_fract_y
 _atom_site_fract_z
 _atom_site_occupancy
  Ca  Ca1  1  0.500000  0.850080  0.521163  1.0
  Ca  Ca2  1  0.000000  0.478837  0.850080  1.0
  Ca  Ca3  1  0.000000  0.521163  0.149920  1.0
  Ca  Ca4  1  0.000000  0.978837  0.649920  1.0
  Ca  Ca5  1  0.000000  0.367151  0.425314  1.0
  Ca  Ca6  1  0.500000  0.649920  0.021163  1.0
  Ca  Ca7  1  0.000000  0.021163  0.350080  1.0
  Ca  Ca8  1  0.500000  0.074686  0.132849  1.0
  Ca  Ca9  1  0.500000  0.925314  0.867151  1.0
  Ca  Ca10  1  0.000000  0.132849  0.925314  1.0
  Ca  Ca11  1  0.000000  0.867151  0.074686  1.0
  Ca  Ca12  1  0.000000  0.632849  0.574686  1.0
  Ca  Ca13  1  0.500000  0.425314  0.632849  1.0
  Ca  Ca14  1  0.500000  0.574686  0.367151  1.0
  Ca  Ca15  1  0.500000  0.149920  0.478837  1.0
  Ca  Ca16  1  0.500000  0.350080  0.978837  1.0
  Ge  Ge17  1  0.500000  0.344120  0.245457  1.0
  Ge  Ge18  1  0.500000  0.655880  0.754543  1.0
  Ge  Ge19  1  0.000000  0.245457  0.655880  1.0
  Ge  Ge20  1  0.000000  0.745457  0.844120  1.0
  Ge  Ge21  1  0.500000  0.155880  0.745457  1.0
  Ge  Ge22  1  0.500000  0.844120  0.254543  1.0
  Ge  Ge23  1  0.000000  0.254543  0.155880  1.0
  Ge  Ge24  1  0.000000  0.754543  0.344120  1.0
  N  N25  1  0.500000  0.491268  0.163381  1.0
  N  N26  1  0.000000  0.410627  0.635867  1.0
  N  N27  1  0.000000  0.589373  0.364133  1.0
  N  N28  1  0.000000  0.910627  0.864133  1.0
  N  N29  1  0.500000  0.135867  0.910627  1.0
  N  N30  1  0.500000  0.864133  0.089373  1.0
  N  N31  1  0.000000  0.089373  0.135867  1.0
  N  N32  1  0.000000  0.336619  0.008732  1.0
  N  N33  1  0.500000  0.991268  0.336619  1.0
  N  N34  1  0.500000  0.008732  0.663381  1.0
  N  N35  1  0.500000  0.364133  0.410627  1.0
  N  N36  1  0.000000  0.663381  0.991268  1.0
  N  N37  1  0.000000  0.836619  0.491268  1.0
  N  N38  1  0.000000  0.163381  0.508732  1.0
  N  N39  1  0.500000  0.508732  0.836619  1.0
  N  N40  1  0.500000  0.635867  0.589373  1.0
