# generated using pymatgen
data_U2N3
_symmetry_space_group_name_H-M   'P 1'
_cell_length_a   3.69284889
_cell_length_b   3.69284889
_cell_length_c   5.76951565
_cell_angle_alpha   90.00000000
_cell_angle_beta   90.00000000
_cell_angle_gamma   119.99999994
_symmetry_Int_Tables_number   1
_chemical_formula_structural   U2N3
_chemical_formula_sum   'U2 N3'
_cell_volume   68.13857729
_cell_formula_units_Z   1
loop_
 _symmetry_equiv_pos_site_id
 _symmetry_equiv_pos_as_xyz
  1  'x, y, z'
loop_
 _atom_site_type_symbol
 _atom_site_label
 _atom_site_symmetry_multiplicity
 _atom_site_fract_x
 _atom_site_fract_y
 _atom_site_fract_z
 _atom_site_occupancy
  U  U1  1  0.333333  0.666667  0.242270  1.0
  U  U2  1  0.666667  0.333333  0.757730  1.0
  N  N3  1  0.000000  0.000000  0.000000  1.0
  N  N4  1  0.333333  0.666667  0.642524  1.0
  N  N5  1  0.666667  0.333333  0.357476  1.0
