# generated using pymatgen
data_Ga3Ni2
_symmetry_space_group_name_H-M   'P 1'
_cell_length_a   4.08897518
_cell_length_b   4.08904723
_cell_length_c   4.87459712
_cell_angle_alpha   90.00000003
_cell_angle_beta   89.98767866
_cell_angle_gamma   120.00058412
_symmetry_Int_Tables_number   1
_chemical_formula_structural   Ga3Ni2
_chemical_formula_sum   'Ga3 Ni2'
_cell_volume   70.58353268
_cell_formula_units_Z   1
loop_
 _symmetry_equiv_pos_site_id
 _symmetry_equiv_pos_as_xyz
  1  'x, y, z'
loop_
 _atom_site_type_symbol
 _atom_site_label
 _atom_site_symmetry_multiplicity
 _atom_site_fract_x
 _atom_site_fract_y
 _atom_site_fract_z
 _atom_site_occupancy
  Ga  Ga1  1  0.000000  0.000000  0.000000  1.0
  Ga  Ga2  1  0.333374  0.666687  0.638256  1.0
  Ga  Ga3  1  0.666626  0.333313  0.361744  1.0
  Ni  Ni4  1  0.333314  0.666657  0.136369  1.0
  Ni  Ni5  1  0.666686  0.333343  0.863631  1.0
