# generated using pymatgen
data_Li(FeP)2
_symmetry_space_group_name_H-M   'P 1'
_cell_length_a   3.76217840
_cell_length_b   5.24704792
_cell_length_c   3.76217840
_cell_angle_alpha   68.99162630
_cell_angle_beta   90.00000000
_cell_angle_gamma   111.00837370
_symmetry_Int_Tables_number   1
_chemical_formula_structural   Li(FeP)2
_chemical_formula_sum   'Li1 Fe2 P2'
_cell_volume   64.01376395
_cell_formula_units_Z   1
loop_
 _symmetry_equiv_pos_site_id
 _symmetry_equiv_pos_as_xyz
  1  'x, y, z'
loop_
 _atom_site_type_symbol
 _atom_site_label
 _atom_site_symmetry_multiplicity
 _atom_site_fract_x
 _atom_site_fract_y
 _atom_site_fract_z
 _atom_site_occupancy
  Li  Li1  1  0.000000  0.000000  0.000000  1.0
  Fe  Fe2  1  0.250000  0.500000  0.250000  1.0
  Fe  Fe3  1  0.750000  0.500000  0.750000  1.0
  P  P4  1  0.626553  0.253105  0.373447  1.0
  P  P5  1  0.373447  0.746895  0.626553  1.0
