# generated using pymatgen
data_LiNiO2
_symmetry_space_group_name_H-M   'P 1'
_cell_length_a   4.03584776
_cell_length_b   5.10037319
_cell_length_c   4.03584776
_cell_angle_alpha   66.69396132
_cell_angle_beta   90.00000000
_cell_angle_gamma   113.30603868
_symmetry_Int_Tables_number   1
_chemical_formula_structural   LiNiO2
_chemical_formula_sum   'Li2 Ni2 O4'
_cell_volume   68.85399111
_cell_formula_units_Z   2
loop_
 _symmetry_equiv_pos_site_id
 _symmetry_equiv_pos_as_xyz
  1  'x, y, z'
loop_
 _atom_site_type_symbol
 _atom_site_label
 _atom_site_symmetry_multiplicity
 _atom_site_fract_x
 _atom_site_fract_y
 _atom_site_fract_z
 _atom_site_occupancy
  Li  Li1  1  0.250000  0.500000  0.250000  1.0
  Li  Li2  1  0.500000  0.000000  0.500000  1.0
  Ni  Ni3  1  0.000000  0.000000  0.000000  1.0
  Ni  Ni4  1  0.750000  0.500000  0.750000  1.0
  O  O5  1  0.771516  0.543032  0.228484  1.0
  O  O6  1  0.228484  0.456968  0.771516  1.0
  O  O7  1  0.521516  0.043032  0.978484  1.0
  O  O8  1  0.978484  0.956968  0.521516  1.0
