# generated using pymatgen
data_Sc
_symmetry_space_group_name_H-M   'P 1'
_cell_length_a   3.58836672
_cell_length_b   5.26355146
_cell_length_c   5.26355146
_cell_angle_alpha   90.00000000
_cell_angle_beta   90.00000000
_cell_angle_gamma   90.00000000
_symmetry_Int_Tables_number   1
_chemical_formula_structural   Sc
_chemical_formula_sum   Sc4
_cell_volume   99.41560658
_cell_formula_units_Z   4
loop_
 _symmetry_equiv_pos_site_id
 _symmetry_equiv_pos_as_xyz
  1  'x, y, z'
loop_
 _atom_site_type_symbol
 _atom_site_label
 _atom_site_symmetry_multiplicity
 _atom_site_fract_x
 _atom_site_fract_y
 _atom_site_fract_z
 _atom_site_occupancy
  Sc  Sc1  1  0.000000  0.250000  0.750000  1.0
  Sc  Sc2  1  0.000000  0.750000  0.250000  1.0
  Sc  Sc3  1  0.500079  0.250000  0.250000  1.0
  Sc  Sc4  1  0.499921  0.750000  0.750000  1.0
