# generated using pymatgen
data_HfGaCu
_symmetry_space_group_name_H-M   'P 1'
_cell_length_a   4.22705016
_cell_length_b   4.22660669
_cell_length_c   6.31146826
_cell_angle_alpha   90.00000000
_cell_angle_beta   90.00000000
_cell_angle_gamma   120.00347088
_symmetry_Int_Tables_number   1
_chemical_formula_structural   HfGaCu
_chemical_formula_sum   'Hf2 Ga2 Cu2'
_cell_volume   97.65063714
_cell_formula_units_Z   2
loop_
 _symmetry_equiv_pos_site_id
 _symmetry_equiv_pos_as_xyz
  1  'x, y, z'
loop_
 _atom_site_type_symbol
 _atom_site_label
 _atom_site_symmetry_multiplicity
 _atom_site_fract_x
 _atom_site_fract_y
 _atom_site_fract_z
 _atom_site_occupancy
  Hf  Hf1  1  0.000000  0.000000  0.500000  1.0
  Hf  Hf2  1  0.000000  0.000000  0.000000  1.0
  Ga  Ga3  1  0.333330  0.666660  0.750000  1.0
  Ga  Ga4  1  0.666670  0.333340  0.250000  1.0
  Cu  Cu5  1  0.333334  0.666669  0.250000  1.0
  Cu  Cu6  1  0.666666  0.333331  0.750000  1.0
