# generated using pymatgen
data_SrTa2H2O7
_symmetry_space_group_name_H-M   'P 1'
_cell_length_a   3.98444895
_cell_length_b   3.98444858
_cell_length_c   9.90515488
_cell_angle_alpha   101.60305528
_cell_angle_beta   101.60305181
_cell_angle_gamma   89.99999859
_symmetry_Int_Tables_number   1
_chemical_formula_structural   SrTa2H2O7
_chemical_formula_sum   'Sr1 Ta2 H2 O7'
_cell_volume   150.75703074
_cell_formula_units_Z   1
loop_
 _symmetry_equiv_pos_site_id
 _symmetry_equiv_pos_as_xyz
  1  'x, y, z'
loop_
 _atom_site_type_symbol
 _atom_site_label
 _atom_site_symmetry_multiplicity
 _atom_site_fract_x
 _atom_site_fract_y
 _atom_site_fract_z
 _atom_site_occupancy
  Sr  Sr1  1  0.000000  0.000000  0.000000  1.0
  Ta  Ta2  1  0.609478  0.609478  0.218956  1.0
  Ta  Ta3  1  0.390522  0.390522  0.781044  1.0
  H  H4  1  0.759611  0.759611  0.519221  1.0
  H  H5  1  0.240389  0.240389  0.480779  1.0
  O  O6  1  0.500000  0.500000  0.000000  1.0
  O  O7  1  0.291233  0.291233  0.582465  1.0
  O  O8  1  0.708767  0.708767  0.417535  1.0
  O  O9  1  0.401313  0.901313  0.802626  1.0
  O  O10  1  0.901313  0.401313  0.802626  1.0
  O  O11  1  0.098687  0.598687  0.197374  1.0
  O  O12  1  0.598687  0.098687  0.197374  1.0
