# generated using pymatgen
data_NaNi2O3
_symmetry_space_group_name_H-M   'P 1'
_cell_length_a   2.99675573
_cell_length_b   2.99642751
_cell_length_c   7.67722294
_cell_angle_alpha   89.99711996
_cell_angle_beta   90.00000000
_cell_angle_gamma   120.00362342
_symmetry_Int_Tables_number   1
_chemical_formula_structural   NaNi2O3
_chemical_formula_sum   'Na1 Ni2 O3'
_cell_volume   59.69996070
_cell_formula_units_Z   1
loop_
 _symmetry_equiv_pos_site_id
 _symmetry_equiv_pos_as_xyz
  1  'x, y, z'
loop_
 _atom_site_type_symbol
 _atom_site_label
 _atom_site_symmetry_multiplicity
 _atom_site_fract_x
 _atom_site_fract_y
 _atom_site_fract_z
 _atom_site_occupancy
  Na  Na1  1  0.999987  0.000000  0.500000  1.0
  Ni  Ni2  1  0.333339  0.666681  0.161433  1.0
  Ni  Ni3  1  0.666658  0.333319  0.838567  1.0
  O  O4  1  0.333293  0.666599  0.708196  1.0
  O  O5  1  0.000009  0.000000  0.000000  1.0
  O  O6  1  0.666694  0.333401  0.291804  1.0
