# generated using pymatgen
data_VCuO2
_symmetry_space_group_name_H-M   'P 1'
_cell_length_a   2.99920155
_cell_length_b   3.06002891
_cell_length_c   6.08155974
_cell_angle_alpha   104.74822472
_cell_angle_beta   90.00000564
_cell_angle_gamma   119.34457622
_symmetry_Int_Tables_number   1
_chemical_formula_structural   VCuO2
_chemical_formula_sum   'V1 Cu1 O2'
_cell_volume   46.53171214
_cell_formula_units_Z   1
loop_
 _symmetry_equiv_pos_site_id
 _symmetry_equiv_pos_as_xyz
  1  'x, y, z'
loop_
 _atom_site_type_symbol
 _atom_site_label
 _atom_site_symmetry_multiplicity
 _atom_site_fract_x
 _atom_site_fract_y
 _atom_site_fract_z
 _atom_site_occupancy
  V  V1  1  0.500000  0.000000  0.000000  1.0
  Cu  Cu2  1  0.000000  0.000000  0.500000  1.0
  O  O3  1  0.110270  0.220539  0.818093  1.0
  O  O4  1  0.889730  0.779461  0.181907  1.0
