# generated using pymatgen
data_Sr2NiMoO6
_symmetry_space_group_name_H-M   'P 1'
_cell_length_a   5.64232960
_cell_length_b   5.64232960
_cell_length_c   5.64232959
_cell_angle_alpha   59.99999997
_cell_angle_beta   60.00000000
_cell_angle_gamma   59.99999994
_symmetry_Int_Tables_number   1
_chemical_formula_structural   Sr2NiMoO6
_chemical_formula_sum   'Sr2 Ni1 Mo1 O6'
_cell_volume   127.01656320
_cell_formula_units_Z   1
loop_
 _symmetry_equiv_pos_site_id
 _symmetry_equiv_pos_as_xyz
  1  'x, y, z'
loop_
 _atom_site_type_symbol
 _atom_site_label
 _atom_site_symmetry_multiplicity
 _atom_site_fract_x
 _atom_site_fract_y
 _atom_site_fract_z
 _atom_site_occupancy
  Sr  Sr1  1  0.749999  0.750000  0.750001  1.0
  Sr  Sr2  1  0.249999  0.250001  0.250000  1.0
  Ni  Ni3  1  0.500000  0.500000  0.500001  1.0
  Mo  Mo4  1  0.000000  0.000000  0.000000  1.0
  O  O5  1  0.242856  0.757144  0.757144  1.0
  O  O6  1  0.242856  0.757144  0.242857  1.0
  O  O7  1  0.757143  0.242855  0.757145  1.0
  O  O8  1  0.242857  0.242855  0.757144  1.0
  O  O9  1  0.757143  0.242855  0.242857  1.0
  O  O10  1  0.757143  0.757144  0.242857  1.0
