# generated using pymatgen
data_Ti6Al16Ni7
_symmetry_space_group_name_H-M   'P 1'
_cell_length_a   8.34560779
_cell_length_b   8.34560779
_cell_length_c   8.34560779
_cell_angle_alpha   60.00000000
_cell_angle_beta   60.00000000
_cell_angle_gamma   60.00000000
_symmetry_Int_Tables_number   1
_chemical_formula_structural   Ti6Al16Ni7
_chemical_formula_sum   'Ti6 Al16 Ni7'
_cell_volume   411.01617609
_cell_formula_units_Z   1
loop_
 _symmetry_equiv_pos_site_id
 _symmetry_equiv_pos_as_xyz
  1  'x, y, z'
loop_
 _atom_site_type_symbol
 _atom_site_label
 _atom_site_symmetry_multiplicity
 _atom_site_fract_x
 _atom_site_fract_y
 _atom_site_fract_z
 _atom_site_occupancy
  Ti  Ti1  1  0.682394  0.317607  0.317607  1.0
  Ti  Ti2  1  0.317607  0.682394  0.682394  1.0
  Ti  Ti3  1  0.317607  0.682394  0.317607  1.0
  Ti  Ti4  1  0.317607  0.317607  0.682394  1.0
  Ti  Ti5  1  0.682394  0.317607  0.682394  1.0
  Ti  Ti6  1  0.682394  0.682394  0.317607  1.0
  Al  Al7  1  0.337927  0.337927  0.337927  1.0
  Al  Al8  1  0.337927  0.337927  0.986220  1.0
  Al  Al9  1  0.986220  0.337927  0.337927  1.0
  Al  Al10  1  0.337927  0.986220  0.337927  1.0
  Al  Al11  1  0.662073  0.662073  0.662073  1.0
  Al  Al12  1  0.662073  0.662073  0.013780  1.0
  Al  Al13  1  0.662073  0.013780  0.662073  1.0
  Al  Al14  1  0.013780  0.662073  0.662073  1.0
  Al  Al15  1  0.119065  0.119065  0.119065  1.0
  Al  Al16  1  0.119065  0.119065  0.642804  1.0
  Al  Al17  1  0.642804  0.119065  0.119065  1.0
  Al  Al18  1  0.119065  0.642804  0.119065  1.0
  Al  Al19  1  0.880935  0.880935  0.880935  1.0
  Al  Al20  1  0.880935  0.880935  0.357196  1.0
  Al  Al21  1  0.880935  0.357196  0.880935  1.0
  Al  Al22  1  0.357196  0.880935  0.880935  1.0
  Ni  Ni23  1  0.500001  0.000000  0.000000  1.0
  Ni  Ni24  1  0.000001  0.500000  0.500000  1.0
  Ni  Ni25  1  0.000000  0.500001  0.000000  1.0
  Ni  Ni26  1  0.000000  0.000000  0.500001  1.0
  Ni  Ni27  1  0.500000  0.000001  0.500000  1.0
  Ni  Ni28  1  0.500000  0.500000  0.000001  1.0
  Ni  Ni29  1  0.000000  0.000000  0.000000  1.0
