# generated using pymatgen
data_Cd3As2
_symmetry_space_group_name_H-M   'P 1'
_cell_length_a   6.47982550
_cell_length_b   6.47982550
_cell_length_c   6.47982550
_cell_angle_alpha   90.00000000
_cell_angle_beta   90.00000000
_cell_angle_gamma   90.00000000
_symmetry_Int_Tables_number   1
_chemical_formula_structural   Cd3As2
_chemical_formula_sum   'Cd6 As4'
_cell_volume   272.07581062
_cell_formula_units_Z   2
loop_
 _symmetry_equiv_pos_site_id
 _symmetry_equiv_pos_as_xyz
  1  'x, y, z'
loop_
 _atom_site_type_symbol
 _atom_site_label
 _atom_site_symmetry_multiplicity
 _atom_site_fract_x
 _atom_site_fract_y
 _atom_site_fract_z
 _atom_site_occupancy
  Cd  Cd1  1  0.500000  0.000000  0.500000  1.0
  Cd  Cd2  1  0.500000  0.500000  0.000000  1.0
  Cd  Cd3  1  0.000000  0.500000  0.000000  1.0
  Cd  Cd4  1  0.000000  0.000000  0.500000  1.0
  Cd  Cd5  1  0.500000  0.000000  0.000000  1.0
  Cd  Cd6  1  0.000000  0.500000  0.500000  1.0
  As  As7  1  0.250000  0.750000  0.750000  1.0
  As  As8  1  0.750000  0.750000  0.250000  1.0
  As  As9  1  0.750000  0.250000  0.750000  1.0
  As  As10  1  0.250000  0.250000  0.250000  1.0
