# generated using pymatgen
data_NaH4ClO2
_symmetry_space_group_name_H-M   'P 1'
_cell_length_a   6.46173481
_cell_length_b   6.60376304
_cell_length_c   10.18512121
_cell_angle_alpha   90.00000000
_cell_angle_beta   90.00000000
_cell_angle_gamma   114.79884710
_symmetry_Int_Tables_number   1
_chemical_formula_structural   NaH4ClO2
_chemical_formula_sum   'Na4 H16 Cl4 O8'
_cell_volume   394.53928695
_cell_formula_units_Z   4
loop_
 _symmetry_equiv_pos_site_id
 _symmetry_equiv_pos_as_xyz
  1  'x, y, z'
loop_
 _atom_site_type_symbol
 _atom_site_label
 _atom_site_symmetry_multiplicity
 _atom_site_fract_x
 _atom_site_fract_y
 _atom_site_fract_z
 _atom_site_occupancy
  Na  Na1  1  0.972258  0.545378  0.831774  1.0
  Na  Na2  1  0.027742  0.954622  0.331774  1.0
  Na  Na3  1  0.027742  0.454622  0.168226  1.0
  Na  Na4  1  0.972258  0.045378  0.668226  1.0
  H  H5  1  0.224010  0.778540  0.590459  1.0
  H  H6  1  0.775990  0.721460  0.090459  1.0
  H  H7  1  0.775990  0.221460  0.409541  1.0
  H  H8  1  0.224010  0.278540  0.909541  1.0
  H  H9  1  0.362664  0.935520  0.702118  1.0
  H  H10  1  0.637336  0.564480  0.202118  1.0
  H  H11  1  0.637336  0.064480  0.297882  1.0
  H  H12  1  0.362664  0.435520  0.797882  1.0
  H  H13  1  0.618618  0.751402  0.476317  1.0
  H  H14  1  0.381382  0.748598  0.976317  1.0
  H  H15  1  0.381382  0.248598  0.523683  1.0
  H  H16  1  0.618618  0.251402  0.023683  1.0
  H  H17  1  0.746669  0.618190  0.539209  1.0
  H  H18  1  0.253331  0.881810  0.039209  1.0
  H  H19  1  0.253331  0.381810  0.460791  1.0
  H  H20  1  0.746669  0.118190  0.960791  1.0
  Cl  Cl21  1  0.704977  0.790908  0.885378  1.0
  Cl  Cl22  1  0.295023  0.709092  0.385378  1.0
  Cl  Cl23  1  0.295023  0.209092  0.114622  1.0
  Cl  Cl24  1  0.704977  0.290908  0.614622  1.0
  O  O25  1  0.208204  0.827060  0.680365  1.0
  O  O26  1  0.791796  0.672940  0.180365  1.0
  O  O27  1  0.791796  0.172940  0.319635  1.0
  O  O28  1  0.208204  0.327060  0.819635  1.0
  O  O29  1  0.768909  0.767975  0.508858  1.0
  O  O30  1  0.231091  0.732025  0.008858  1.0
  O  O31  1  0.231091  0.232025  0.491142  1.0
  O  O32  1  0.768909  0.267975  0.991142  1.0
