# generated using pymatgen
data_HfTa2N3
_symmetry_space_group_name_H-M   'P 1'
_cell_length_a   5.25055459
_cell_length_b   5.25055490
_cell_length_c   2.99200390
_cell_angle_alpha   90.00000000
_cell_angle_beta   90.00000000
_cell_angle_gamma   120.02880780
_symmetry_Int_Tables_number   1
_chemical_formula_structural   HfTa2N3
_chemical_formula_sum   'Hf1 Ta2 N3'
_cell_volume   71.41295859
_cell_formula_units_Z   1
loop_
 _symmetry_equiv_pos_site_id
 _symmetry_equiv_pos_as_xyz
  1  'x, y, z'
loop_
 _atom_site_type_symbol
 _atom_site_label
 _atom_site_symmetry_multiplicity
 _atom_site_fract_x
 _atom_site_fract_y
 _atom_site_fract_z
 _atom_site_occupancy
  Hf  Hf1  1  0.000008  0.000008  0.000000  1.0
  Ta  Ta2  1  0.666653  0.333403  0.500000  1.0
  Ta  Ta3  1  0.333403  0.666653  0.500000  1.0
  N  N4  1  0.500002  0.500002  0.000000  1.0
  N  N5  1  0.500013  0.000022  0.000000  1.0
  N  N6  1  0.000022  0.500013  0.000000  1.0
