# generated using pymatgen
data_Sm2O3
_symmetry_space_group_name_H-M   'P 1'
_cell_length_a   7.71739223
_cell_length_b   7.71739242
_cell_length_c   9.45183614
_cell_angle_alpha   35.26439075
_cell_angle_beta   35.26438883
_cell_angle_gamma   59.99999941
_symmetry_Int_Tables_number   1
_chemical_formula_structural   Sm2O3
_chemical_formula_sum   'Sm4 O6'
_cell_volume   162.50500108
_cell_formula_units_Z   2
loop_
 _symmetry_equiv_pos_site_id
 _symmetry_equiv_pos_as_xyz
  1  'x, y, z'
loop_
 _atom_site_type_symbol
 _atom_site_label
 _atom_site_symmetry_multiplicity
 _atom_site_fract_x
 _atom_site_fract_y
 _atom_site_fract_z
 _atom_site_occupancy
  Sm  Sm1  1  0.000000  0.000000  0.000000  1.0
  Sm  Sm2  1  0.000000  0.500000  0.000000  1.0
  Sm  Sm3  1  0.500000  0.000000  0.000000  1.0
  Sm  Sm4  1  0.500000  0.500000  0.000000  1.0
  O  O5  1  0.500000  0.000000  0.250000  1.0
  O  O6  1  0.500000  0.500000  0.250000  1.0
  O  O7  1  0.000000  0.500000  0.750000  1.0
  O  O8  1  0.500000  0.500000  0.750000  1.0
  O  O9  1  0.000000  0.500000  0.250000  1.0
  O  O10  1  0.500000  0.000000  0.750000  1.0
