# generated using pymatgen
data_Li4Fe3O8
_symmetry_space_group_name_H-M   'P 1'
_cell_length_a   10.31907131
_cell_length_b   10.31906880
_cell_length_c   14.63392487
_cell_angle_alpha   19.01531975
_cell_angle_beta   19.01530965
_cell_angle_gamma   32.77911568
_symmetry_Int_Tables_number   1
_chemical_formula_structural   Li4Fe3O8
_chemical_formula_sum   'Li4 Fe3 O8'
_cell_volume   143.26436620
_cell_formula_units_Z   1
loop_
 _symmetry_equiv_pos_site_id
 _symmetry_equiv_pos_as_xyz
  1  'x, y, z'
loop_
 _atom_site_type_symbol
 _atom_site_label
 _atom_site_symmetry_multiplicity
 _atom_site_fract_x
 _atom_site_fract_y
 _atom_site_fract_z
 _atom_site_occupancy
  Li  Li1  1  0.000002  0.999995  0.000002  1.0
  Li  Li2  1  0.999999  0.500004  0.499997  1.0
  Li  Li3  1  0.499999  0.999993  0.500006  1.0
  Li  Li4  1  0.500009  0.500002  0.499993  1.0
  Fe  Fe5  1  0.999978  0.500003  0.000012  1.0
  Fe  Fe6  1  0.499970  0.999957  0.000048  1.0
  Fe  Fe7  1  0.500024  0.500000  0.999989  1.0
  O  O8  1  0.000016  0.000020  0.247991  1.0
  O  O9  1  0.000046  0.474951  0.281058  1.0
  O  O10  1  0.474937  0.000044  0.281072  1.0
  O  O11  1  0.999988  0.999988  0.752001  1.0
  O  O12  1  0.525095  0.525100  0.230926  1.0
  O  O13  1  0.999958  0.525071  0.718921  1.0
  O  O14  1  0.525067  0.999957  0.718926  1.0
  O  O15  1  0.474915  0.474917  0.769057  1.0
