# generated using pymatgen
data_CsLaNb2O7
_symmetry_space_group_name_H-M   'P 1'
_cell_length_a   3.95209373
_cell_length_b   3.95211714
_cell_length_c   11.50383267
_cell_angle_alpha   90.00000000
_cell_angle_beta   90.00000000
_cell_angle_gamma   90.00000000
_symmetry_Int_Tables_number   1
_chemical_formula_structural   CsLaNb2O7
_chemical_formula_sum   'Cs1 La1 Nb2 O7'
_cell_volume   179.67994275
_cell_formula_units_Z   1
loop_
 _symmetry_equiv_pos_site_id
 _symmetry_equiv_pos_as_xyz
  1  'x, y, z'
loop_
 _atom_site_type_symbol
 _atom_site_label
 _atom_site_symmetry_multiplicity
 _atom_site_fract_x
 _atom_site_fract_y
 _atom_site_fract_z
 _atom_site_occupancy
  Cs  Cs1  1  0.000000  0.000000  0.500193  1.0
  La  La2  1  0.000000  0.000000  0.999876  1.0
  Nb  Nb3  1  0.500000  0.500000  0.198177  1.0
  Nb  Nb4  1  0.500000  0.500000  0.801804  1.0
  O  O5  1  0.500000  0.500000  0.644568  1.0
  O  O6  1  0.000000  0.500000  0.160970  1.0
  O  O7  1  0.500000  0.000000  0.160969  1.0
  O  O8  1  0.000000  0.500000  0.838998  1.0
  O  O9  1  0.500000  0.000000  0.838998  1.0
  O  O10  1  0.500000  0.500000  0.355447  1.0
  O  O11  1  0.500000  0.500000  0.999999  1.0
