# generated using pymatgen
data_TiMn3O8
_symmetry_space_group_name_H-M   'P 1'
_cell_length_a   10.38293375
_cell_length_b   10.38292341
_cell_length_c   14.71643910
_cell_angle_alpha   19.12146628
_cell_angle_beta   19.12143917
_cell_angle_gamma   32.96067764
_symmetry_Int_Tables_number   1
_chemical_formula_structural   TiMn3O8
_chemical_formula_sum   'Ti1 Mn3 O8'
_cell_volume   147.42903915
_cell_formula_units_Z   1
loop_
 _symmetry_equiv_pos_site_id
 _symmetry_equiv_pos_as_xyz
  1  'x, y, z'
loop_
 _atom_site_type_symbol
 _atom_site_label
 _atom_site_symmetry_multiplicity
 _atom_site_fract_x
 _atom_site_fract_y
 _atom_site_fract_z
 _atom_site_occupancy
  Ti  Ti1  1  0.000004  0.000002  0.999998  1.0
  Mn  Mn2  1  0.999993  0.500004  0.000003  1.0
  Mn  Mn3  1  0.500003  0.000006  0.999996  1.0
  Mn  Mn4  1  0.500000  0.499993  0.000003  1.0
  O  O5  1  0.999858  0.999859  0.268308  1.0
  O  O6  1  0.999857  0.491755  0.273595  1.0
  O  O7  1  0.491753  0.999847  0.273604  1.0
  O  O8  1  0.000147  0.000149  0.731683  1.0
  O  O9  1  0.507953  0.507952  0.257400  1.0
  O  O10  1  0.000144  0.508246  0.726402  1.0
  O  O11  1  0.508242  0.000136  0.726410  1.0
  O  O12  1  0.492048  0.492050  0.742598  1.0
