# generated using pymatgen
data_Cs2PtF6
_symmetry_space_group_name_H-M   'P 1'
_cell_length_a   6.34656056
_cell_length_b   6.34656056
_cell_length_c   5.19686422
_cell_angle_alpha   90.00000000
_cell_angle_beta   90.00000000
_cell_angle_gamma   120.00000001
_symmetry_Int_Tables_number   1
_chemical_formula_structural   Cs2PtF6
_chemical_formula_sum   'Cs2 Pt1 F6'
_cell_volume   181.27956848
_cell_formula_units_Z   1
loop_
 _symmetry_equiv_pos_site_id
 _symmetry_equiv_pos_as_xyz
  1  'x, y, z'
loop_
 _atom_site_type_symbol
 _atom_site_label
 _atom_site_symmetry_multiplicity
 _atom_site_fract_x
 _atom_site_fract_y
 _atom_site_fract_z
 _atom_site_occupancy
  Cs  Cs1  1  0.333333  0.666667  0.708935  1.0
  Cs  Cs2  1  0.666667  0.333333  0.291065  1.0
  Pt  Pt3  1  0.000000  0.000000  0.000000  1.0
  F  F4  1  0.849246  0.150754  0.790683  1.0
  F  F5  1  0.849246  0.698492  0.790683  1.0
  F  F6  1  0.301508  0.150754  0.790683  1.0
  F  F7  1  0.150754  0.849246  0.209317  1.0
  F  F8  1  0.150754  0.301508  0.209317  1.0
  F  F9  1  0.698492  0.849246  0.209317  1.0
