# generated using pymatgen
data_CdHg2
_symmetry_space_group_name_H-M   'P 1'
_cell_length_a   4.10573037
_cell_length_b   4.10573036
_cell_length_c   5.34870411
_cell_angle_alpha   112.56964053
_cell_angle_beta   112.56964048
_cell_angle_gamma   89.99999998
_symmetry_Int_Tables_number   1
_chemical_formula_structural   CdHg2
_chemical_formula_sum   'Cd1 Hg2'
_cell_volume   75.72560863
_cell_formula_units_Z   1
loop_
 _symmetry_equiv_pos_site_id
 _symmetry_equiv_pos_as_xyz
  1  'x, y, z'
loop_
 _atom_site_type_symbol
 _atom_site_label
 _atom_site_symmetry_multiplicity
 _atom_site_fract_x
 _atom_site_fract_y
 _atom_site_fract_z
 _atom_site_occupancy
  Cd  Cd1  1  0.000000  0.000000  0.000000  1.0
  Hg  Hg2  1  0.333281  0.333281  0.666563  1.0
  Hg  Hg3  1  0.666719  0.666719  0.333437  1.0
