# generated using pymatgen
data_Tb(FeB)2
_symmetry_space_group_name_H-M   'P 1'
_cell_length_a   3.62805919
_cell_length_b   3.62805919
_cell_length_c   5.36619201
_cell_angle_alpha   109.75798222
_cell_angle_beta   109.75798222
_cell_angle_gamma   90.00000001
_symmetry_Int_Tables_number   1
_chemical_formula_structural   Tb(FeB)2
_chemical_formula_sum   'Tb1 Fe2 B2'
_cell_volume   62.03946922
_cell_formula_units_Z   1
loop_
 _symmetry_equiv_pos_site_id
 _symmetry_equiv_pos_as_xyz
  1  'x, y, z'
loop_
 _atom_site_type_symbol
 _atom_site_label
 _atom_site_symmetry_multiplicity
 _atom_site_fract_x
 _atom_site_fract_y
 _atom_site_fract_z
 _atom_site_occupancy
  Tb  Tb1  1  0.000000  0.000000  0.000000  1.0
  Fe  Fe2  1  0.250000  0.750000  0.500000  1.0
  Fe  Fe3  1  0.750000  0.250000  0.500000  1.0
  B  B4  1  0.661917  0.661917  0.323833  1.0
  B  B5  1  0.338083  0.338083  0.676167  1.0
