# generated using pymatgen
data_MoPbO4
_symmetry_space_group_name_H-M   'P 1'
_cell_length_a   5.52420755
_cell_length_b   5.52420755
_cell_length_c   7.30242459
_cell_angle_alpha   112.22500085
_cell_angle_beta   112.22500085
_cell_angle_gamma   90.00000000
_symmetry_Int_Tables_number   1
_chemical_formula_structural   MoPbO4
_chemical_formula_sum   'Mo2 Pb2 O8'
_cell_volume   188.28430997
_cell_formula_units_Z   2
loop_
 _symmetry_equiv_pos_site_id
 _symmetry_equiv_pos_as_xyz
  1  'x, y, z'
loop_
 _atom_site_type_symbol
 _atom_site_label
 _atom_site_symmetry_multiplicity
 _atom_site_fract_x
 _atom_site_fract_y
 _atom_site_fract_z
 _atom_site_occupancy
  Mo  Mo1  1  0.125000  0.375000  0.250000  1.0
  Mo  Mo2  1  0.875000  0.625000  0.750000  1.0
  Pb  Pb3  1  0.625000  0.875000  0.250000  1.0
  Pb  Pb4  1  0.375000  0.125000  0.750000  1.0
  O  O5  1  0.341264  0.692480  0.411259  1.0
  O  O6  1  0.069995  0.218779  0.411259  1.0
  O  O7  1  0.192480  0.569995  0.911259  1.0
  O  O8  1  0.718779  0.841264  0.911259  1.0
  O  O9  1  0.658736  0.307520  0.588741  1.0
  O  O10  1  0.930005  0.781221  0.588741  1.0
  O  O11  1  0.807520  0.430005  0.088741  1.0
  O  O12  1  0.281221  0.158736  0.088741  1.0
