# generated using pymatgen
data_BaHfO3
_symmetry_space_group_name_H-M   'P 1'
_cell_length_a   4.20331710
_cell_length_b   4.20502068
_cell_length_c   4.20511297
_cell_angle_alpha   89.99567019
_cell_angle_beta   90.00592377
_cell_angle_gamma   90.00179861
_symmetry_Int_Tables_number   1
_chemical_formula_structural   BaHfO3
_chemical_formula_sum   'Ba1 Hf1 O3'
_cell_volume   74.32551967
_cell_formula_units_Z   1
loop_
 _symmetry_equiv_pos_site_id
 _symmetry_equiv_pos_as_xyz
  1  'x, y, z'
loop_
 _atom_site_type_symbol
 _atom_site_label
 _atom_site_symmetry_multiplicity
 _atom_site_fract_x
 _atom_site_fract_y
 _atom_site_fract_z
 _atom_site_occupancy
  Ba  Ba1  1  0.988823  0.998548  0.995451  1.0
  Hf  Hf2  1  0.488666  0.499797  0.497765  1.0
  O  O3  1  0.486297  0.000443  0.497140  1.0
  O  O4  1  0.987903  0.501522  0.500963  1.0
  O  O5  1  0.488310  0.499690  0.998677  1.0
