# generated using pymatgen
data_Si2W
_symmetry_space_group_name_H-M   'P 1'
_cell_length_a   3.23355667
_cell_length_b   3.23355590
_cell_length_c   4.54997237
_cell_angle_alpha   110.81416244
_cell_angle_beta   110.81416180
_cell_angle_gamma   90.00000036
_symmetry_Int_Tables_number   1
_chemical_formula_structural   Si2W
_chemical_formula_sum   'Si2 W1'
_cell_volume   41.13073118
_cell_formula_units_Z   1
loop_
 _symmetry_equiv_pos_site_id
 _symmetry_equiv_pos_as_xyz
  1  'x, y, z'
loop_
 _atom_site_type_symbol
 _atom_site_label
 _atom_site_symmetry_multiplicity
 _atom_site_fract_x
 _atom_site_fract_y
 _atom_site_fract_z
 _atom_site_occupancy
  Si  Si1  1  0.334929  0.334929  0.669858  1.0
  Si  Si2  1  0.665071  0.665071  0.330142  1.0
  W  W3  1  0.000000  0.000000  0.000000  1.0
