# generated using pymatgen
data_LiVO2
_symmetry_space_group_name_H-M   'P 1'
_cell_length_a   2.99138110
_cell_length_b   2.99138110
_cell_length_c   5.19281356
_cell_angle_alpha   73.25990431
_cell_angle_beta   73.25990431
_cell_angle_gamma   60.00000318
_symmetry_Int_Tables_number   1
_chemical_formula_structural   LiVO2
_chemical_formula_sum   'Li1 V1 O2'
_cell_volume   37.95085967
_cell_formula_units_Z   1
loop_
 _symmetry_equiv_pos_site_id
 _symmetry_equiv_pos_as_xyz
  1  'x, y, z'
loop_
 _atom_site_type_symbol
 _atom_site_label
 _atom_site_symmetry_multiplicity
 _atom_site_fract_x
 _atom_site_fract_y
 _atom_site_fract_z
 _atom_site_occupancy
  Li  Li1  1  0.000000  0.000000  0.000000  1.0
  V  V2  1  0.500000  0.500000  0.500000  1.0
  O  O3  1  0.243248  0.243248  0.270257  1.0
  O  O4  1  0.756752  0.756752  0.729743  1.0
