# generated using pymatgen
data_UC2
_symmetry_space_group_name_H-M   'P 1'
_cell_length_a   3.51928839
_cell_length_b   3.51928839
_cell_length_c   3.88455117
_cell_angle_alpha   116.93537331
_cell_angle_beta   116.93537326
_cell_angle_gamma   90.00000005
_symmetry_Int_Tables_number   1
_chemical_formula_structural   UC2
_chemical_formula_sum   'U1 C2'
_cell_volume   36.94303267
_cell_formula_units_Z   1
loop_
 _symmetry_equiv_pos_site_id
 _symmetry_equiv_pos_as_xyz
  1  'x, y, z'
loop_
 _atom_site_type_symbol
 _atom_site_label
 _atom_site_symmetry_multiplicity
 _atom_site_fract_x
 _atom_site_fract_y
 _atom_site_fract_z
 _atom_site_occupancy
  U  U1  1  0.000000  0.000000  0.000000  1.0
  C  C2  1  0.615657  0.615657  0.231313  1.0
  C  C3  1  0.384343  0.384343  0.768687  1.0
