# generated using pymatgen
data_BeO
_symmetry_space_group_name_H-M   'P 1'
_cell_length_a   2.58040500
_cell_length_b   2.58040500
_cell_length_c   2.58040500
_cell_angle_alpha   60.00000000
_cell_angle_beta   59.99999998
_cell_angle_gamma   60.00000001
_symmetry_Int_Tables_number   1
_chemical_formula_structural   BeO
_chemical_formula_sum   'Be1 O1'
_cell_volume   12.14922643
_cell_formula_units_Z   1
loop_
 _symmetry_equiv_pos_site_id
 _symmetry_equiv_pos_as_xyz
  1  'x, y, z'
loop_
 _atom_site_type_symbol
 _atom_site_label
 _atom_site_symmetry_multiplicity
 _atom_site_fract_x
 _atom_site_fract_y
 _atom_site_fract_z
 _atom_site_occupancy
  Be  Be1  1  0.000000  0.000000  0.000000  1.0
  O  O2  1  0.500000  0.500000  0.500000  1.0
