# generated using pymatgen
data_Li2CuGe
_symmetry_space_group_name_H-M   'P 1'
_cell_length_a   4.21264412
_cell_length_b   4.21264483
_cell_length_c   4.21264427
_cell_angle_alpha   59.99999407
_cell_angle_beta   59.99999336
_cell_angle_gamma   59.99999775
_symmetry_Int_Tables_number   1
_chemical_formula_structural   Li2CuGe
_chemical_formula_sum   'Li2 Cu1 Ge1'
_cell_volume   52.86270203
_cell_formula_units_Z   1
loop_
 _symmetry_equiv_pos_site_id
 _symmetry_equiv_pos_as_xyz
  1  'x, y, z'
loop_
 _atom_site_type_symbol
 _atom_site_label
 _atom_site_symmetry_multiplicity
 _atom_site_fract_x
 _atom_site_fract_y
 _atom_site_fract_z
 _atom_site_occupancy
  Li  Li1  1  0.250000  0.250000  0.250000  1.0
  Li  Li2  1  0.500000  0.500000  0.500000  1.0
  Cu  Cu3  1  0.750000  0.750000  0.750000  1.0
  Ge  Ge4  1  0.000000  0.000000  0.000000  1.0
