# generated using pymatgen
data_TmCu5
_symmetry_space_group_name_H-M   'P 1'
_cell_length_a   4.93265003
_cell_length_b   4.93265044
_cell_length_c   4.93264932
_cell_angle_alpha   59.99999995
_cell_angle_beta   59.99999730
_cell_angle_gamma   59.99999652
_symmetry_Int_Tables_number   1
_chemical_formula_structural   TmCu5
_chemical_formula_sum   'Tm1 Cu5'
_cell_volume   84.86446267
_cell_formula_units_Z   1
loop_
 _symmetry_equiv_pos_site_id
 _symmetry_equiv_pos_as_xyz
  1  'x, y, z'
loop_
 _atom_site_type_symbol
 _atom_site_label
 _atom_site_symmetry_multiplicity
 _atom_site_fract_x
 _atom_site_fract_y
 _atom_site_fract_z
 _atom_site_occupancy
  Tm  Tm1  1  0.000000  0.000000  0.000000  1.0
  Cu  Cu2  1  0.250000  0.250000  0.250000  1.0
  Cu  Cu3  1  0.624014  0.624014  0.624014  1.0
  Cu  Cu4  1  0.624014  0.624014  0.127958  1.0
  Cu  Cu5  1  0.127958  0.624014  0.624014  1.0
  Cu  Cu6  1  0.624014  0.127958  0.624014  1.0
