# generated using pymatgen
data_TiInAu2
_symmetry_space_group_name_H-M   'P 1'
_cell_length_a   4.71815848
_cell_length_b   4.71807701
_cell_length_c   4.71698833
_cell_angle_alpha   60.03385796
_cell_angle_beta   60.04694877
_cell_angle_gamma   60.04280010
_symmetry_Int_Tables_number   1
_chemical_formula_structural   TiInAu2
_chemical_formula_sum   'Ti1 In1 Au2'
_cell_volume   74.31778324
_cell_formula_units_Z   1
loop_
 _symmetry_equiv_pos_site_id
 _symmetry_equiv_pos_as_xyz
  1  'x, y, z'
loop_
 _atom_site_type_symbol
 _atom_site_label
 _atom_site_symmetry_multiplicity
 _atom_site_fract_x
 _atom_site_fract_y
 _atom_site_fract_z
 _atom_site_occupancy
  Ti  Ti1  1  0.499997  0.500002  0.499987  1.0
  In  In2  1  0.000009  0.999974  0.999989  1.0
  Au  Au3  1  0.249948  0.249989  0.249989  1.0
  Au  Au4  1  0.750046  0.750036  0.750035  1.0
