# generated using pymatgen
data_Ge2W
_symmetry_space_group_name_H-M   'P 1'
_cell_length_a   3.34213977
_cell_length_b   3.34213908
_cell_length_c   4.77266128
_cell_angle_alpha   110.49549524
_cell_angle_beta   110.49549217
_cell_angle_gamma   89.99999635
_symmetry_Int_Tables_number   1
_chemical_formula_structural   Ge2W
_chemical_formula_sum   'Ge2 W1'
_cell_volume   46.31582068
_cell_formula_units_Z   1
loop_
 _symmetry_equiv_pos_site_id
 _symmetry_equiv_pos_as_xyz
  1  'x, y, z'
loop_
 _atom_site_type_symbol
 _atom_site_label
 _atom_site_symmetry_multiplicity
 _atom_site_fract_x
 _atom_site_fract_y
 _atom_site_fract_z
 _atom_site_occupancy
  Ge  Ge1  1  0.337280  0.337280  0.674560  1.0
  Ge  Ge2  1  0.662720  0.662720  0.325440  1.0
  W  W3  1  0.000000  0.000000  0.000000  1.0
