# generated using pymatgen
data_NiCl
_symmetry_space_group_name_H-M   'P 1'
_cell_length_a   3.50271092
_cell_length_b   3.50271112
_cell_length_c   3.50271016
_cell_angle_alpha   60.10917527
_cell_angle_beta   60.10916808
_cell_angle_gamma   60.10919277
_symmetry_Int_Tables_number   1
_chemical_formula_structural   NiCl
_chemical_formula_sum   'Ni1 Cl1'
_cell_volume   30.46286778
_cell_formula_units_Z   1
loop_
 _symmetry_equiv_pos_site_id
 _symmetry_equiv_pos_as_xyz
  1  'x, y, z'
loop_
 _atom_site_type_symbol
 _atom_site_label
 _atom_site_symmetry_multiplicity
 _atom_site_fract_x
 _atom_site_fract_y
 _atom_site_fract_z
 _atom_site_occupancy
  Ni  Ni1  1  0.000000  0.000000  0.000000  1.0
  Cl  Cl2  1  0.500000  0.500000  0.500000  1.0
