# generated using pymatgen
data_Nb2Al
_symmetry_space_group_name_H-M   'P 1'
_cell_length_a   5.20198073
_cell_length_b   10.00236647
_cell_length_c   10.00236647
_cell_angle_alpha   90.00000000
_cell_angle_beta   90.00000000
_cell_angle_gamma   90.00000000
_symmetry_Int_Tables_number   1
_chemical_formula_structural   Nb2Al
_chemical_formula_sum   'Nb20 Al10'
_cell_volume   520.44430876
_cell_formula_units_Z   10
loop_
 _symmetry_equiv_pos_site_id
 _symmetry_equiv_pos_as_xyz
  1  'x, y, z'
loop_
 _atom_site_type_symbol
 _atom_site_label
 _atom_site_symmetry_multiplicity
 _atom_site_fract_x
 _atom_site_fract_y
 _atom_site_fract_z
 _atom_site_occupancy
  Nb  Nb1  1  0.000000  0.396543  0.396543  1.0
  Nb  Nb2  1  0.500000  0.103457  0.896543  1.0
  Nb  Nb3  1  0.500000  0.896543  0.103457  1.0
  Nb  Nb4  1  0.000000  0.603457  0.603457  1.0
  Nb  Nb5  1  0.000000  0.464906  0.127883  1.0
  Nb  Nb6  1  0.500000  0.372117  0.964906  1.0
  Nb  Nb7  1  0.500000  0.627883  0.035094  1.0
  Nb  Nb8  1  0.000000  0.535094  0.872117  1.0
  Nb  Nb9  1  0.500000  0.964906  0.372117  1.0
  Nb  Nb10  1  0.500000  0.035094  0.627883  1.0
  Nb  Nb11  1  0.000000  0.127883  0.464906  1.0
  Nb  Nb12  1  0.000000  0.872117  0.535094  1.0
  Nb  Nb13  1  0.252250  0.181769  0.181769  1.0
  Nb  Nb14  1  0.752250  0.318231  0.681769  1.0
  Nb  Nb15  1  0.752250  0.681769  0.318231  1.0
  Nb  Nb16  1  0.252250  0.818231  0.818231  1.0
  Nb  Nb17  1  0.247750  0.681769  0.318231  1.0
  Nb  Nb18  1  0.247750  0.318231  0.681769  1.0
  Nb  Nb19  1  0.747750  0.181769  0.181769  1.0
  Nb  Nb20  1  0.747750  0.818231  0.818231  1.0
  Al  Al21  1  0.000000  0.000000  0.000000  1.0
  Al  Al22  1  0.500000  0.500000  0.500000  1.0
  Al  Al23  1  0.000000  0.933195  0.261556  1.0
  Al  Al24  1  0.500000  0.238444  0.433195  1.0
  Al  Al25  1  0.500000  0.761556  0.566805  1.0
  Al  Al26  1  0.000000  0.066805  0.738444  1.0
  Al  Al27  1  0.500000  0.433195  0.238444  1.0
  Al  Al28  1  0.500000  0.566805  0.761556  1.0
  Al  Al29  1  0.000000  0.261556  0.933195  1.0
  Al  Al30  1  0.000000  0.738444  0.066805  1.0
