# generated using pymatgen
data_NdBi
_symmetry_space_group_name_H-M   'P 1'
_cell_length_a   4.60979270
_cell_length_b   4.60979270
_cell_length_c   4.60979270
_cell_angle_alpha   60.00000001
_cell_angle_beta   59.99999997
_cell_angle_gamma   59.99999998
_symmetry_Int_Tables_number   1
_chemical_formula_structural   NdBi
_chemical_formula_sum   'Nd1 Bi1'
_cell_volume   69.26744835
_cell_formula_units_Z   1
loop_
 _symmetry_equiv_pos_site_id
 _symmetry_equiv_pos_as_xyz
  1  'x, y, z'
loop_
 _atom_site_type_symbol
 _atom_site_label
 _atom_site_symmetry_multiplicity
 _atom_site_fract_x
 _atom_site_fract_y
 _atom_site_fract_z
 _atom_site_occupancy
  Nd  Nd1  1  0.500000  0.500000  0.500000  1.0
  Bi  Bi2  1  0.000000  0.000000  0.000000  1.0
