# generated using pymatgen
data_CaPmZn2
_symmetry_space_group_name_H-M   'P 1'
_cell_length_a   5.18306376
_cell_length_b   5.18306376
_cell_length_c   5.18306376
_cell_angle_alpha   60.11056937
_cell_angle_beta   60.11056937
_cell_angle_gamma   60.11056937
_symmetry_Int_Tables_number   1
_chemical_formula_structural   CaPmZn2
_chemical_formula_sum   'Ca1 Pm1 Zn2'
_cell_volume   98.70320625
_cell_formula_units_Z   1
loop_
 _symmetry_equiv_pos_site_id
 _symmetry_equiv_pos_as_xyz
  1  'x, y, z'
loop_
 _atom_site_type_symbol
 _atom_site_label
 _atom_site_symmetry_multiplicity
 _atom_site_fract_x
 _atom_site_fract_y
 _atom_site_fract_z
 _atom_site_occupancy
  Ca  Ca1  1  0.250000  0.250000  0.250000  1.0
  Pm  Pm2  1  0.750001  0.750001  0.750001  1.0
  Zn  Zn3  1  0.999932  0.999932  0.999932  1.0
  Zn  Zn4  1  0.500070  0.500070  0.500070  1.0
