# generated using pymatgen
data_Al(SnO2)2
_symmetry_space_group_name_H-M   'P 1'
_cell_length_a   6.85884843
_cell_length_b   6.85884735
_cell_length_c   6.85884843
_cell_angle_alpha   53.24864280
_cell_angle_beta   53.24865416
_cell_angle_gamma   53.24864735
_symmetry_Int_Tables_number   1
_chemical_formula_structural   Al(SnO2)2
_chemical_formula_sum   'Al2 Sn4 O8'
_cell_volume   192.08454930
_cell_formula_units_Z   2
loop_
 _symmetry_equiv_pos_site_id
 _symmetry_equiv_pos_as_xyz
  1  'x, y, z'
loop_
 _atom_site_type_symbol
 _atom_site_label
 _atom_site_symmetry_multiplicity
 _atom_site_fract_x
 _atom_site_fract_y
 _atom_site_fract_z
 _atom_site_occupancy
  Al  Al1  1  0.637324  0.637324  0.637324  1.0
  Al  Al2  1  0.362676  0.362676  0.362676  1.0
  Sn  Sn3  1  0.000000  0.500000  0.000000  1.0
  Sn  Sn4  1  0.000000  0.000000  0.000000  1.0
  Sn  Sn5  1  0.500000  0.000000  0.000000  1.0
  Sn  Sn6  1  0.000000  0.000000  0.500000  1.0
  O  O7  1  0.273989  0.763151  0.763151  1.0
  O  O8  1  0.236849  0.236849  0.726011  1.0
  O  O9  1  0.236849  0.726011  0.236849  1.0
  O  O10  1  0.262865  0.262865  0.262865  1.0
  O  O11  1  0.763151  0.763151  0.273989  1.0
  O  O12  1  0.726011  0.236849  0.236849  1.0
  O  O13  1  0.763151  0.273989  0.763151  1.0
  O  O14  1  0.737135  0.737135  0.737135  1.0
