# generated using pymatgen
data_TiH2
_symmetry_space_group_name_H-M   'P 1'
_cell_length_a   3.09640597
_cell_length_b   3.09640588
_cell_length_c   3.09640654
_cell_angle_alpha   93.68701322
_cell_angle_beta   117.89463343
_cell_angle_gamma   117.89462502
_symmetry_Int_Tables_number   1
_chemical_formula_structural   TiH2
_chemical_formula_sum   'Ti1 H2'
_cell_volume   21.61186211
_cell_formula_units_Z   1
loop_
 _symmetry_equiv_pos_site_id
 _symmetry_equiv_pos_as_xyz
  1  'x, y, z'
loop_
 _atom_site_type_symbol
 _atom_site_label
 _atom_site_symmetry_multiplicity
 _atom_site_fract_x
 _atom_site_fract_y
 _atom_site_fract_z
 _atom_site_occupancy
  Ti  Ti1  1  0.000000  0.000000  0.000000  1.0
  H  H2  1  0.500000  0.250000  0.750000  1.0
  H  H3  1  0.500000  0.750000  0.250000  1.0
