# generated using pymatgen
data_Al2CdSe4
_symmetry_space_group_name_H-M   'P 1'
_cell_length_a   5.87923624
_cell_length_b   5.87923624
_cell_length_c   6.84787655
_cell_angle_alpha   115.42152077
_cell_angle_beta   115.42152079
_cell_angle_gamma   89.99999997
_symmetry_Int_Tables_number   1
_chemical_formula_structural   Al2CdSe4
_chemical_formula_sum   'Al2 Cd1 Se4'
_cell_volume   188.09020864
_cell_formula_units_Z   1
loop_
 _symmetry_equiv_pos_site_id
 _symmetry_equiv_pos_as_xyz
  1  'x, y, z'
loop_
 _atom_site_type_symbol
 _atom_site_label
 _atom_site_symmetry_multiplicity
 _atom_site_fract_x
 _atom_site_fract_y
 _atom_site_fract_z
 _atom_site_occupancy
  Al  Al1  1  0.250000  0.750000  0.500000  1.0
  Al  Al2  1  0.500000  0.500000  0.000000  1.0
  Cd  Cd3  1  0.000000  0.000000  0.000000  1.0
  Se  Se4  1  0.866833  0.867792  0.273845  1.0
  Se  Se5  1  0.407012  0.406053  0.273845  1.0
  Se  Se6  1  0.132208  0.592988  0.726155  1.0
  Se  Se7  1  0.593947  0.133167  0.726155  1.0
