# generated using pymatgen
data_Mg(InTe2)2
_symmetry_space_group_name_H-M   'P 1'
_cell_length_a   6.33927993
_cell_length_b   6.33927993
_cell_length_c   7.79020897
_cell_angle_alpha   114.09760546
_cell_angle_beta   114.09760546
_cell_angle_gamma   89.98343719
_symmetry_Int_Tables_number   1
_chemical_formula_structural   Mg(InTe2)2
_chemical_formula_sum   'Mg1 In2 Te4'
_cell_volume   255.61791472
_cell_formula_units_Z   1
loop_
 _symmetry_equiv_pos_site_id
 _symmetry_equiv_pos_as_xyz
  1  'x, y, z'
loop_
 _atom_site_type_symbol
 _atom_site_label
 _atom_site_symmetry_multiplicity
 _atom_site_fract_x
 _atom_site_fract_y
 _atom_site_fract_z
 _atom_site_occupancy
  Mg  Mg1  1  0.998298  0.998298  0.999205  1.0
  In  In2  1  0.250898  0.749543  0.500179  1.0
  In  In3  1  0.749543  0.250898  0.500179  1.0
  Te  Te4  1  0.161668  0.614915  0.775657  1.0
  Te  Te5  1  0.385065  0.385065  0.223963  1.0
  Te  Te6  1  0.614915  0.161668  0.775657  1.0
  Te  Te7  1  0.839613  0.839613  0.225160  1.0
