# generated using pymatgen
data_BPO4
_symmetry_space_group_name_H-M   'P 1'
_cell_length_a   4.44199463
_cell_length_b   4.44199463
_cell_length_c   4.59577509
_cell_angle_alpha   118.89914811
_cell_angle_beta   118.89914823
_cell_angle_gamma   89.99999996
_symmetry_Int_Tables_number   1
_chemical_formula_structural   BPO4
_chemical_formula_sum   'B1 P1 O4'
_cell_volume   66.19699436
_cell_formula_units_Z   1
loop_
 _symmetry_equiv_pos_site_id
 _symmetry_equiv_pos_as_xyz
  1  'x, y, z'
loop_
 _atom_site_type_symbol
 _atom_site_label
 _atom_site_symmetry_multiplicity
 _atom_site_fract_x
 _atom_site_fract_y
 _atom_site_fract_z
 _atom_site_occupancy
  B  B1  1  0.250000  0.750000  0.500000  1.0
  P  P2  1  0.000000  0.000000  0.000000  1.0
  O  O3  1  0.131554  0.742643  0.746248  1.0
  O  O4  1  0.257357  0.385306  0.253752  1.0
  O  O5  1  0.614694  0.003606  0.746248  1.0
  O  O6  1  0.996394  0.868446  0.253752  1.0
