# generated using pymatgen
data_Li2S
_symmetry_space_group_name_H-M   'P 1'
_cell_length_a   3.93698487
_cell_length_b   7.10713471
_cell_length_c   6.80133179
_cell_angle_alpha   90.00000000
_cell_angle_beta   90.00000000
_cell_angle_gamma   90.00000000
_symmetry_Int_Tables_number   1
_chemical_formula_structural   Li2S
_chemical_formula_sum   'Li8 S4'
_cell_volume   190.30590078
_cell_formula_units_Z   4
loop_
 _symmetry_equiv_pos_site_id
 _symmetry_equiv_pos_as_xyz
  1  'x, y, z'
loop_
 _atom_site_type_symbol
 _atom_site_label
 _atom_site_symmetry_multiplicity
 _atom_site_fract_x
 _atom_site_fract_y
 _atom_site_fract_z
 _atom_site_occupancy
  Li  Li1  1  0.285188  0.592482  0.582019  1.0
  Li  Li2  1  0.785188  0.907518  0.082019  1.0
  Li  Li3  1  0.785188  0.407518  0.417981  1.0
  Li  Li4  1  0.765620  0.591767  0.082517  1.0
  Li  Li5  1  0.765620  0.091767  0.417483  1.0
  Li  Li6  1  0.265620  0.908233  0.582517  1.0
  Li  Li7  1  0.285188  0.092482  0.917981  1.0
  Li  Li8  1  0.265620  0.408233  0.917483  1.0
  S  S9  1  0.776192  0.749847  0.415286  1.0
  S  S10  1  0.276192  0.250153  0.584714  1.0
  S  S11  1  0.276192  0.750153  0.915286  1.0
  S  S12  1  0.776192  0.249847  0.084714  1.0
