# generated using pymatgen
data_LiLuO2
_symmetry_space_group_name_H-M   'P 1'
_cell_length_a   4.35410415
_cell_length_b   5.91339339
_cell_length_c   4.35410415
_cell_angle_alpha   68.39805363
_cell_angle_beta   90.00000000
_cell_angle_gamma   111.60194637
_symmetry_Int_Tables_number   1
_chemical_formula_structural   LiLuO2
_chemical_formula_sum   'Li2 Lu2 O4'
_cell_volume   95.71388878
_cell_formula_units_Z   2
loop_
 _symmetry_equiv_pos_site_id
 _symmetry_equiv_pos_as_xyz
  1  'x, y, z'
loop_
 _atom_site_type_symbol
 _atom_site_label
 _atom_site_symmetry_multiplicity
 _atom_site_fract_x
 _atom_site_fract_y
 _atom_site_fract_z
 _atom_site_occupancy
  Li  Li1  1  0.250000  0.500000  0.250000  1.0
  Li  Li2  1  0.500000  0.000000  0.500000  1.0
  Lu  Lu3  1  0.000000  0.000000  0.000000  1.0
  Lu  Lu4  1  0.750000  0.500000  0.750000  1.0
  O  O5  1  0.777350  0.554701  0.222650  1.0
  O  O6  1  0.222650  0.445299  0.777350  1.0
  O  O7  1  0.527350  0.054701  0.972650  1.0
  O  O8  1  0.972650  0.945299  0.527350  1.0
