# generated using pymatgen
data_RbTaO3
_symmetry_space_group_name_H-M   'P 1'
_cell_length_a   5.78193339
_cell_length_b   5.78193339
_cell_length_c   7.09753369
_cell_angle_alpha   90.00000000
_cell_angle_beta   90.00000000
_cell_angle_gamma   120.00000374
_symmetry_Int_Tables_number   1
_chemical_formula_structural   RbTaO3
_chemical_formula_sum   'Rb3 Ta3 O9'
_cell_volume   205.48695010
_cell_formula_units_Z   3
loop_
 _symmetry_equiv_pos_site_id
 _symmetry_equiv_pos_as_xyz
  1  'x, y, z'
loop_
 _atom_site_type_symbol
 _atom_site_label
 _atom_site_symmetry_multiplicity
 _atom_site_fract_x
 _atom_site_fract_y
 _atom_site_fract_z
 _atom_site_occupancy
  Rb  Rb1  1  0.333333  0.666667  0.643856  1.0
  Rb  Rb2  1  0.000000  0.000000  0.977189  1.0
  Rb  Rb3  1  0.666667  0.333333  0.310522  1.0
  Ta  Ta4  1  0.333333  0.666667  0.155081  1.0
  Ta  Ta5  1  0.000000  0.000000  0.488415  1.0
  Ta  Ta6  1  0.666667  0.333333  0.821748  1.0
  O  O7  1  0.662509  0.831255  0.299472  1.0
  O  O8  1  0.168745  0.337491  0.299472  1.0
  O  O9  1  0.168745  0.831255  0.299472  1.0
  O  O10  1  0.329176  0.164588  0.632805  1.0
  O  O11  1  0.835412  0.670824  0.632805  1.0
  O  O12  1  0.835412  0.164588  0.632805  1.0
  O  O13  1  0.995842  0.497922  0.966139  1.0
  O  O14  1  0.502078  0.004158  0.966139  1.0
  O  O15  1  0.502078  0.497922  0.966139  1.0
