# generated using pymatgen
data_LuGaO3
_symmetry_space_group_name_H-M   'P 1'
_cell_length_a   3.45788392
_cell_length_b   3.45793961
_cell_length_c   11.70532283
_cell_angle_alpha   90.00025844
_cell_angle_beta   89.99932638
_cell_angle_gamma   120.00266108
_symmetry_Int_Tables_number   1
_chemical_formula_structural   LuGaO3
_chemical_formula_sum   'Lu2 Ga2 O6'
_cell_volume   121.20769600
_cell_formula_units_Z   2
loop_
 _symmetry_equiv_pos_site_id
 _symmetry_equiv_pos_as_xyz
  1  'x, y, z'
loop_
 _atom_site_type_symbol
 _atom_site_label
 _atom_site_symmetry_multiplicity
 _atom_site_fract_x
 _atom_site_fract_y
 _atom_site_fract_z
 _atom_site_occupancy
  Lu  Lu1  1  0.999983  0.000053  0.999983  1.0
  Lu  Lu2  1  0.000001  0.000027  0.500013  1.0
  Ga  Ga3  1  0.333281  0.666686  0.249996  1.0
  Ga  Ga4  1  0.666697  0.333399  0.750004  1.0
  O  O5  1  0.333308  0.666691  0.085597  1.0
  O  O6  1  0.000007  0.000001  0.249988  1.0
  O  O7  1  0.333359  0.666646  0.414437  1.0
  O  O8  1  0.999884  0.000000  0.750007  1.0
  O  O9  1  0.666733  0.333411  0.914390  1.0
  O  O10  1  0.666745  0.333287  0.585584  1.0
