# generated using pymatgen
data_LiGe2N3
_symmetry_space_group_name_H-M   'P 1'
_cell_length_a   5.57622304
_cell_length_b   9.62844384
_cell_length_c   5.10168246
_cell_angle_alpha   90.00000000
_cell_angle_beta   90.00000000
_cell_angle_gamma   90.00000000
_symmetry_Int_Tables_number   1
_chemical_formula_structural   LiGe2N3
_chemical_formula_sum   'Li4 Ge8 N12'
_cell_volume   273.91111880
_cell_formula_units_Z   4
loop_
 _symmetry_equiv_pos_site_id
 _symmetry_equiv_pos_as_xyz
  1  'x, y, z'
loop_
 _atom_site_type_symbol
 _atom_site_label
 _atom_site_symmetry_multiplicity
 _atom_site_fract_x
 _atom_site_fract_y
 _atom_site_fract_z
 _atom_site_occupancy
  Li  Li1  1  0.841494  0.500000  0.511679  1.0
  Li  Li2  1  0.158506  0.500000  0.011679  1.0
  Li  Li3  1  0.341494  0.000000  0.511679  1.0
  Li  Li4  1  0.658506  0.000000  0.011679  1.0
  Ge  Ge5  1  0.333391  0.663323  0.507345  1.0
  Ge  Ge6  1  0.333391  0.336677  0.507345  1.0
  Ge  Ge7  1  0.666609  0.336677  0.007345  1.0
  Ge  Ge8  1  0.666609  0.663323  0.007345  1.0
  Ge  Ge9  1  0.833391  0.163323  0.507345  1.0
  Ge  Ge10  1  0.833391  0.836677  0.507345  1.0
  Ge  Ge11  1  0.166609  0.836677  0.007345  1.0
  Ge  Ge12  1  0.166609  0.163323  0.007345  1.0
  N  N13  1  0.851488  0.187070  0.138637  1.0
  N  N14  1  0.851488  0.812930  0.138637  1.0
  N  N15  1  0.148512  0.812930  0.638637  1.0
  N  N16  1  0.148512  0.187070  0.638637  1.0
  N  N17  1  0.798491  0.500000  0.108354  1.0
  N  N18  1  0.201509  0.500000  0.608354  1.0
  N  N19  1  0.351488  0.687070  0.138637  1.0
  N  N20  1  0.351488  0.312930  0.138637  1.0
  N  N21  1  0.648512  0.312930  0.638637  1.0
  N  N22  1  0.648512  0.687070  0.638637  1.0
  N  N23  1  0.298491  0.000000  0.108354  1.0
  N  N24  1  0.701509  0.000000  0.608354  1.0
