# generated using pymatgen
data_LiTaO3
_symmetry_space_group_name_H-M   'P 1'
_cell_length_a   5.53381920
_cell_length_b   5.53381920
_cell_length_c   5.53381920
_cell_angle_alpha   56.14486292
_cell_angle_beta   56.14486288
_cell_angle_gamma   56.14486290
_symmetry_Int_Tables_number   1
_chemical_formula_structural   LiTaO3
_chemical_formula_sum   'Li2 Ta2 O6'
_cell_volume   109.13334365
_cell_formula_units_Z   2
loop_
 _symmetry_equiv_pos_site_id
 _symmetry_equiv_pos_as_xyz
  1  'x, y, z'
loop_
 _atom_site_type_symbol
 _atom_site_label
 _atom_site_symmetry_multiplicity
 _atom_site_fract_x
 _atom_site_fract_y
 _atom_site_fract_z
 _atom_site_occupancy
  Li  Li1  1  0.282257  0.282257  0.282257  1.0
  Li  Li2  1  0.782257  0.782257  0.782257  1.0
  Ta  Ta3  1  0.999447  0.999447  0.999447  1.0
  Ta  Ta4  1  0.499447  0.499447  0.499447  1.0
  O  O5  1  0.619858  0.225986  0.860653  1.0
  O  O6  1  0.725986  0.119858  0.360653  1.0
  O  O7  1  0.119858  0.360653  0.725986  1.0
  O  O8  1  0.360653  0.725986  0.119858  1.0
  O  O9  1  0.860653  0.619858  0.225986  1.0
  O  O10  1  0.225986  0.860653  0.619858  1.0
