# generated using pymatgen
data_NaClO4
_symmetry_space_group_name_H-M   'P 1'
_cell_length_a   4.87140094
_cell_length_b   5.08289133
_cell_length_c   4.87140097
_cell_angle_alpha   58.55315659
_cell_angle_beta   62.89369649
_cell_angle_gamma   58.55315096
_symmetry_Int_Tables_number   1
_chemical_formula_structural   NaClO4
_chemical_formula_sum   'Na1 Cl1 O4'
_cell_volume   84.95478332
_cell_formula_units_Z   1
loop_
 _symmetry_equiv_pos_site_id
 _symmetry_equiv_pos_as_xyz
  1  'x, y, z'
loop_
 _atom_site_type_symbol
 _atom_site_label
 _atom_site_symmetry_multiplicity
 _atom_site_fract_x
 _atom_site_fract_y
 _atom_site_fract_z
 _atom_site_occupancy
  Na  Na1  1  0.500000  0.500000  0.500000  1.0
  Cl  Cl2  1  0.000000  0.000000  0.000000  1.0
  O  O3  1  0.295341  0.035194  0.964806  1.0
  O  O4  1  0.704659  0.295341  0.035194  1.0
  O  O5  1  0.035194  0.964806  0.704659  1.0
  O  O6  1  0.964806  0.704659  0.295341  1.0
