# generated using pymatgen
data_Nd2AlNO3
_symmetry_space_group_name_H-M   'P 1'
_cell_length_a   3.73607902
_cell_length_b   3.73606705
_cell_length_c   6.82553505
_cell_angle_alpha   105.88355354
_cell_angle_beta   105.88359783
_cell_angle_gamma   89.99999692
_symmetry_Int_Tables_number   1
_chemical_formula_structural   Nd2AlNO3
_chemical_formula_sum   'Nd2 Al1 N1 O3'
_cell_volume   87.84693352
_cell_formula_units_Z   1
loop_
 _symmetry_equiv_pos_site_id
 _symmetry_equiv_pos_as_xyz
  1  'x, y, z'
loop_
 _atom_site_type_symbol
 _atom_site_label
 _atom_site_symmetry_multiplicity
 _atom_site_fract_x
 _atom_site_fract_y
 _atom_site_fract_z
 _atom_site_occupancy
  Nd  Nd1  1  0.361613  0.361613  0.723226  1.0
  Nd  Nd2  1  0.650413  0.650413  0.300827  1.0
  Al  Al3  1  0.012461  0.012461  0.024921  1.0
  N  N4  1  0.173215  0.173215  0.346430  1.0
  O  O5  1  0.839990  0.839990  0.679980  1.0
  O  O6  1  0.999804  0.499804  0.999608  1.0
  O  O7  1  0.499804  0.999804  0.999609  1.0
