# generated using pymatgen
data_Ag5P(S2Cl)2
_symmetry_space_group_name_H-M   'P 1'
_cell_length_a   6.33350757
_cell_length_b   6.45252602
_cell_length_c   7.48753624
_cell_angle_alpha   90.00000000
_cell_angle_beta   90.00000000
_cell_angle_gamma   119.39168908
_symmetry_Int_Tables_number   1
_chemical_formula_structural   Ag5P(S2Cl)2
_chemical_formula_sum   'Ag5 P1 S4 Cl2'
_cell_volume   266.60803727
_cell_formula_units_Z   1
loop_
 _symmetry_equiv_pos_site_id
 _symmetry_equiv_pos_as_xyz
  1  'x, y, z'
loop_
 _atom_site_type_symbol
 _atom_site_label
 _atom_site_symmetry_multiplicity
 _atom_site_fract_x
 _atom_site_fract_y
 _atom_site_fract_z
 _atom_site_occupancy
  Ag  Ag1  1  0.938166  0.618054  0.218725  1.0
  Ag  Ag2  1  0.595320  0.000000  0.500000  1.0
  Ag  Ag3  1  0.938166  0.618054  0.781274  1.0
  Ag  Ag4  1  0.320112  0.381946  0.781274  1.0
  Ag  Ag5  1  0.320112  0.381946  0.218725  1.0
  P  P6  1  0.538883  0.000000  0.000000  1.0
  S  S7  1  0.349978  0.000000  0.227811  1.0
  S  S8  1  0.349978  0.000000  0.772189  1.0
  S  S9  1  0.589305  0.704039  0.000000  1.0
  S  S10  1  0.885266  0.295961  0.000000  1.0
  Cl  Cl11  1  0.056519  0.344512  0.500000  1.0
  Cl  Cl12  1  0.712006  0.655488  0.500000  1.0
