# generated using pymatgen
data_Cu2S
_symmetry_space_group_name_H-M   'P 1'
_cell_length_a   3.99375853
_cell_length_b   3.99342200
_cell_length_c   11.23716739
_cell_angle_alpha   89.99960522
_cell_angle_beta   90.00195824
_cell_angle_gamma   89.99879357
_symmetry_Int_Tables_number   1
_chemical_formula_structural   Cu2S
_chemical_formula_sum   'Cu8 S4'
_cell_volume   179.21892133
_cell_formula_units_Z   4
loop_
 _symmetry_equiv_pos_site_id
 _symmetry_equiv_pos_as_xyz
  1  'x, y, z'
loop_
 _atom_site_type_symbol
 _atom_site_label
 _atom_site_symmetry_multiplicity
 _atom_site_fract_x
 _atom_site_fract_y
 _atom_site_fract_z
 _atom_site_occupancy
  Cu  Cu1  1  0.999642  0.660202  0.334523  1.0
  Cu  Cu2  1  0.500349  0.160212  0.415471  1.0
  Cu  Cu3  1  0.839771  0.499619  0.084515  1.0
  Cu  Cu4  1  0.000353  0.339797  0.834531  1.0
  Cu  Cu5  1  0.339755  0.000428  0.165497  1.0
  Cu  Cu6  1  0.499630  0.839779  0.915481  1.0
  Cu  Cu7  1  0.160260  0.500392  0.584496  1.0
  Cu  Cu8  1  0.660245  0.999591  0.665491  1.0
  S  S9  1  0.497125  0.502852  0.750008  1.0
  S  S10  1  0.002866  0.002858  0.999994  1.0
  S  S11  1  0.997129  0.997133  0.499987  1.0
  S  S12  1  0.502875  0.497138  0.250003  1.0
