# generated using pymatgen
data_Co(HO)2
_symmetry_space_group_name_H-M   'P 1'
_cell_length_a   3.18864238
_cell_length_b   3.23753449
_cell_length_c   4.80977854
_cell_angle_alpha   90.00000023
_cell_angle_beta   92.53765143
_cell_angle_gamma   120.50852361
_symmetry_Int_Tables_number   1
_chemical_formula_structural   Co(HO)2
_chemical_formula_sum   'Co1 H2 O2'
_cell_volume   42.72217714
_cell_formula_units_Z   1
loop_
 _symmetry_equiv_pos_site_id
 _symmetry_equiv_pos_as_xyz
  1  'x, y, z'
loop_
 _atom_site_type_symbol
 _atom_site_label
 _atom_site_symmetry_multiplicity
 _atom_site_fract_x
 _atom_site_fract_y
 _atom_site_fract_z
 _atom_site_occupancy
  Co  Co1  1  0.000000  0.978084  0.000000  1.0
  H  H2  1  0.588524  0.183766  0.585130  1.0
  H  H3  1  0.411476  0.595241  0.414870  1.0
  O  O4  1  0.632209  0.280586  0.780568  1.0
  O  O5  1  0.367791  0.648377  0.219432  1.0
