# generated using pymatgen
data_VO2F
_symmetry_space_group_name_H-M   'P 1'
_cell_length_a   5.21394374
_cell_length_b   5.22700810
_cell_length_c   5.21394448
_cell_angle_alpha   117.57679591
_cell_angle_beta   57.94290789
_cell_angle_gamma   117.57679491
_symmetry_Int_Tables_number   1
_chemical_formula_structural   VO2F
_chemical_formula_sum   'V2 O4 F2'
_cell_volume   102.18812836
_cell_formula_units_Z   2
loop_
 _symmetry_equiv_pos_site_id
 _symmetry_equiv_pos_as_xyz
  1  'x, y, z'
loop_
 _atom_site_type_symbol
 _atom_site_label
 _atom_site_symmetry_multiplicity
 _atom_site_fract_x
 _atom_site_fract_y
 _atom_site_fract_z
 _atom_site_occupancy
  V  V1  1  0.737668  0.190500  0.766564  1.0
  V  V2  1  0.266564  0.690500  0.237668  1.0
  O  O3  1  0.041133  0.386814  0.862804  1.0
  O  O4  1  0.462846  0.397042  0.043883  1.0
  O  O5  1  0.362804  0.886814  0.541133  1.0
  O  O6  1  0.543884  0.897042  0.962846  1.0
  F  F7  1  0.874059  0.389292  0.453474  1.0
  F  F8  1  0.953474  0.889292  0.374059  1.0
