# generated using pymatgen
data_Y2O3
_symmetry_space_group_name_H-M   'P 1'
_cell_length_a   14.50492183
_cell_length_b   3.50270609
_cell_length_c   8.61719922
_cell_angle_alpha   90.00000000
_cell_angle_beta   98.68598367
_cell_angle_gamma   90.00000000
_symmetry_Int_Tables_number   1
_chemical_formula_structural   Y2O3
_chemical_formula_sum   'Y12 O18'
_cell_volume   432.78824405
_cell_formula_units_Z   6
loop_
 _symmetry_equiv_pos_site_id
 _symmetry_equiv_pos_as_xyz
  1  'x, y, z'
loop_
 _atom_site_type_symbol
 _atom_site_label
 _atom_site_symmetry_multiplicity
 _atom_site_fract_x
 _atom_site_fract_y
 _atom_site_fract_z
 _atom_site_occupancy
  Y  Y1  1  0.008189  0.250000  0.183022  1.0
  Y  Y2  1  0.115349  0.250000  0.543736  1.0
  Y  Y3  1  0.218394  0.750000  0.177937  1.0
  Y  Y4  1  0.284131  0.750000  0.816446  1.0
  Y  Y5  1  0.393659  0.250000  0.494902  1.0
  Y  Y6  1  0.435667  0.250000  0.130030  1.0
  Y  Y7  1  0.564333  0.750000  0.869970  1.0
  Y  Y8  1  0.606341  0.750000  0.505098  1.0
  Y  Y9  1  0.715869  0.250000  0.183554  1.0
  Y  Y10  1  0.781606  0.250000  0.822063  1.0
  Y  Y11  1  0.884651  0.750000  0.456264  1.0
  Y  Y12  1  0.991811  0.750000  0.816978  1.0
  O  O13  1  0.030772  0.750000  0.379458  1.0
  O  O14  1  0.130843  0.750000  0.716413  1.0
  O  O15  1  0.070776  0.750000  0.061971  1.0
  O  O16  1  0.181972  0.250000  0.315178  1.0
  O  O17  1  0.283346  0.250000  0.651635  1.0
  O  O18  1  0.271179  0.250000  0.011307  1.0
  O  O19  1  0.426429  0.750000  0.966087  1.0
  O  O20  1  0.370313  0.750000  0.297523  1.0
  O  O21  1  0.465233  0.750000  0.626520  1.0
  O  O22  1  0.534767  0.250000  0.373480  1.0
  O  O23  1  0.629687  0.250000  0.702477  1.0
  O  O24  1  0.573571  0.250000  0.033913  1.0
  O  O25  1  0.728821  0.750000  0.988693  1.0
  O  O26  1  0.716654  0.750000  0.348365  1.0
  O  O27  1  0.818028  0.750000  0.684822  1.0
  O  O28  1  0.929224  0.250000  0.938029  1.0
  O  O29  1  0.869157  0.250000  0.283587  1.0
  O  O30  1  0.969228  0.250000  0.620542  1.0
