# generated using pymatgen
data_Mn3TeO6
_symmetry_space_group_name_H-M   'P 1'
_cell_length_a   5.70294173
_cell_length_b   5.70294173
_cell_length_c   5.70294122
_cell_angle_alpha   56.95979718
_cell_angle_beta   56.95979723
_cell_angle_gamma   56.95980249
_symmetry_Int_Tables_number   1
_chemical_formula_structural   Mn3TeO6
_chemical_formula_sum   'Mn3 Te1 O6'
_cell_volume   121.95833467
_cell_formula_units_Z   1
loop_
 _symmetry_equiv_pos_site_id
 _symmetry_equiv_pos_as_xyz
  1  'x, y, z'
loop_
 _atom_site_type_symbol
 _atom_site_label
 _atom_site_symmetry_multiplicity
 _atom_site_fract_x
 _atom_site_fract_y
 _atom_site_fract_z
 _atom_site_occupancy
  Mn  Mn1  1  0.641840  0.641840  0.641840  1.0
  Mn  Mn2  1  0.368371  0.368371  0.368371  1.0
  Mn  Mn3  1  0.859322  0.859322  0.859322  1.0
  Te  Te4  1  0.154588  0.154588  0.154588  1.0
  O  O5  1  0.044846  0.796095  0.409784  1.0
  O  O6  1  0.518205  0.951849  0.255099  1.0
  O  O7  1  0.255099  0.518205  0.951849  1.0
  O  O8  1  0.796095  0.409784  0.044846  1.0
  O  O9  1  0.409784  0.044846  0.796095  1.0
  O  O10  1  0.951849  0.255099  0.518205  1.0
