# generated using pymatgen
data_LiFeF4
_symmetry_space_group_name_H-M   'P 1'
_cell_length_a   6.55190248
_cell_length_b   6.09077604
_cell_length_c   10.08813959
_cell_angle_alpha   89.85606091
_cell_angle_beta   143.37171850
_cell_angle_gamma   62.53224392
_symmetry_Int_Tables_number   1
_chemical_formula_structural   LiFeF4
_chemical_formula_sum   'Li2 Fe2 F8'
_cell_volume   151.35020694
_cell_formula_units_Z   2
loop_
 _symmetry_equiv_pos_site_id
 _symmetry_equiv_pos_as_xyz
  1  'x, y, z'
loop_
 _atom_site_type_symbol
 _atom_site_label
 _atom_site_symmetry_multiplicity
 _atom_site_fract_x
 _atom_site_fract_y
 _atom_site_fract_z
 _atom_site_occupancy
  Li  Li1  1  0.006738  0.499854  0.503969  1.0
  Li  Li2  1  0.998061  0.500504  0.000545  1.0
  Fe  Fe3  1  0.998526  0.090483  0.749350  1.0
  Fe  Fe4  1  0.000958  0.920912  0.249908  1.0
  F  F5  1  0.375777  0.167373  0.042140  1.0
  F  F6  1  0.378256  0.721868  0.065328  1.0
  F  F7  1  0.373498  0.468107  0.541202  1.0
  F  F8  1  0.383533  0.906837  0.567946  1.0
  F  F9  1  0.631142  0.290612  0.940184  1.0
  F  F10  1  0.619485  0.849851  0.953668  1.0
  F  F11  1  0.623762  0.095366  0.436811  1.0
  F  F12  1  0.623255  0.541471  0.456192  1.0
