# generated using pymatgen
data_V4O3F5
_symmetry_space_group_name_H-M   'P 1'
_cell_length_a   5.73175700
_cell_length_b   5.73175700
_cell_length_c   5.73175700
_cell_angle_alpha   70.05780582
_cell_angle_beta   104.44559376
_cell_angle_gamma   65.82861044
_symmetry_Int_Tables_number   1
_chemical_formula_structural   V4O3F5
_chemical_formula_sum   'V4 O3 F5'
_cell_volume   143.91496954
_cell_formula_units_Z   1
loop_
 _symmetry_equiv_pos_site_id
 _symmetry_equiv_pos_as_xyz
  1  'x, y, z'
loop_
 _atom_site_type_symbol
 _atom_site_label
 _atom_site_symmetry_multiplicity
 _atom_site_fract_x
 _atom_site_fract_y
 _atom_site_fract_z
 _atom_site_occupancy
  V  V1  1  0.230646  0.259274  0.510080  1.0
  V  V2  1  0.769354  0.720566  0.510080  1.0
  V  V3  1  0.500000  0.527767  0.972233  1.0
  V  V4  1  0.000000  0.991245  0.008755  1.0
  O  O5  1  0.500000  0.812870  0.687130  1.0
  O  O6  1  0.000000  0.281939  0.718061  1.0
  O  O7  1  0.000000  0.702247  0.297753  1.0
  F  F8  1  0.061571  0.743630  0.807077  1.0
  F  F9  1  0.550709  0.254494  0.807077  1.0
  F  F10  1  0.500000  0.207843  0.292157  1.0
  F  F11  1  0.449291  0.743630  0.194798  1.0
  F  F12  1  0.938429  0.254494  0.194798  1.0
