# generated using pymatgen
data_FeOF
_symmetry_space_group_name_H-M   'P 1'
_cell_length_a   4.78374118
_cell_length_b   9.55164542
_cell_length_c   3.08140656
_cell_angle_alpha   90.00000000
_cell_angle_beta   90.00000000
_cell_angle_gamma   93.34827202
_symmetry_Int_Tables_number   1
_chemical_formula_structural   FeOF
_chemical_formula_sum   'Fe4 O4 F4'
_cell_volume   140.55712962
_cell_formula_units_Z   4
loop_
 _symmetry_equiv_pos_site_id
 _symmetry_equiv_pos_as_xyz
  1  'x, y, z'
loop_
 _atom_site_type_symbol
 _atom_site_label
 _atom_site_symmetry_multiplicity
 _atom_site_fract_x
 _atom_site_fract_y
 _atom_site_fract_z
 _atom_site_occupancy
  Fe  Fe1  1  0.053022  0.999974  0.000000  1.0
  Fe  Fe2  1  0.986693  0.498961  0.000000  1.0
  Fe  Fe3  1  0.516402  0.248562  0.500000  1.0
  Fe  Fe4  1  0.441072  0.749945  0.500000  1.0
  O  O5  1  0.197035  0.902676  0.500000  1.0
  O  O6  1  0.317851  0.157740  0.000000  1.0
  O  O7  1  0.290276  0.646721  0.000000  1.0
  O  O8  1  0.704079  0.352474  0.000000  1.0
  F  F9  1  0.186863  0.405291  0.500000  1.0
  F  F10  1  0.691910  0.845383  0.000000  1.0
  F  F11  1  0.817026  0.091430  0.500000  1.0
  F  F12  1  0.797771  0.600844  0.500000  1.0
