# generated using pymatgen
data_LiV2O4
_symmetry_space_group_name_H-M   'P 1'
_cell_length_a   5.22930485
_cell_length_b   10.53941068
_cell_length_c   10.08592084
_cell_angle_alpha   16.86874644
_cell_angle_beta   28.14139398
_cell_angle_gamma   32.45162411
_symmetry_Int_Tables_number   1
_chemical_formula_structural   LiV2O4
_chemical_formula_sum   'Li1 V2 O4'
_cell_volume   76.07862203
_cell_formula_units_Z   1
loop_
 _symmetry_equiv_pos_site_id
 _symmetry_equiv_pos_as_xyz
  1  'x, y, z'
loop_
 _atom_site_type_symbol
 _atom_site_label
 _atom_site_symmetry_multiplicity
 _atom_site_fract_x
 _atom_site_fract_y
 _atom_site_fract_z
 _atom_site_occupancy
  Li  Li1  1  0.500000  0.500000  0.500000  1.0
  V  V2  1  0.000000  0.500000  0.000000  1.0
  V  V3  1  0.000000  0.000000  0.000000  1.0
  O  O4  1  0.287861  0.500000  0.253949  1.0
  O  O5  1  0.712139  0.500000  0.746051  1.0
  O  O6  1  0.258916  0.000000  0.262985  1.0
  O  O7  1  0.741084  0.000000  0.737015  1.0
