# generated using pymatgen
data_LiMgH3
_symmetry_space_group_name_H-M   'P 1'
_cell_length_a   5.28100409
_cell_length_b   5.28100408
_cell_length_c   5.28100409
_cell_angle_alpha   55.99936267
_cell_angle_beta   55.99936272
_cell_angle_gamma   55.99936268
_symmetry_Int_Tables_number   1
_chemical_formula_structural   LiMgH3
_chemical_formula_sum   'Li2 Mg2 H6'
_cell_volume   94.49164778
_cell_formula_units_Z   2
loop_
 _symmetry_equiv_pos_site_id
 _symmetry_equiv_pos_as_xyz
  1  'x, y, z'
loop_
 _atom_site_type_symbol
 _atom_site_label
 _atom_site_symmetry_multiplicity
 _atom_site_fract_x
 _atom_site_fract_y
 _atom_site_fract_z
 _atom_site_occupancy
  Li  Li1  1  0.288937  0.288937  0.288937  1.0
  Li  Li2  1  0.788937  0.788937  0.788937  1.0
  Mg  Mg3  1  0.999186  0.999186  0.999186  1.0
  Mg  Mg4  1  0.499186  0.499186  0.499186  1.0
  H  H5  1  0.101527  0.700549  0.389600  1.0
  H  H6  1  0.700549  0.389600  0.101527  1.0
  H  H7  1  0.389600  0.101527  0.700549  1.0
  H  H8  1  0.889600  0.200549  0.601527  1.0
  H  H9  1  0.601527  0.889600  0.200549  1.0
  H  H10  1  0.200549  0.601527  0.889600  1.0
