# generated using pymatgen
data_CuPO4
_symmetry_space_group_name_H-M   'P 1'
_cell_length_a   5.42100232
_cell_length_b   4.64591327
_cell_length_c   5.42100232
_cell_angle_alpha   54.30881823
_cell_angle_beta   90.00000000
_cell_angle_gamma   54.30881823
_symmetry_Int_Tables_number   1
_chemical_formula_structural   CuPO4
_chemical_formula_sum   'Cu1 P1 O4'
_cell_volume   77.14298481
_cell_formula_units_Z   1
loop_
 _symmetry_equiv_pos_site_id
 _symmetry_equiv_pos_as_xyz
  1  'x, y, z'
loop_
 _atom_site_type_symbol
 _atom_site_label
 _atom_site_symmetry_multiplicity
 _atom_site_fract_x
 _atom_site_fract_y
 _atom_site_fract_z
 _atom_site_occupancy
  Cu  Cu1  1  0.000000  0.000000  0.000000  1.0
  P  P2  1  0.250000  0.500000  0.750000  1.0
  O  O3  1  0.215868  0.177415  0.051516  1.0
  O  O4  1  0.948484  0.822585  0.393283  1.0
  O  O5  1  0.606717  0.177415  0.771069  1.0
  O  O6  1  0.228931  0.822585  0.784132  1.0
