# generated using pymatgen
data_CsClO4
_symmetry_space_group_name_H-M   'P 1'
_cell_length_a   5.73153429
_cell_length_b   5.73153404
_cell_length_c   5.73153412
_cell_angle_alpha   59.99988299
_cell_angle_beta   59.99988440
_cell_angle_gamma   59.99988610
_symmetry_Int_Tables_number   1
_chemical_formula_structural   CsClO4
_chemical_formula_sum   'Cs1 Cl1 O4'
_cell_volume   133.13631066
_cell_formula_units_Z   1
loop_
 _symmetry_equiv_pos_site_id
 _symmetry_equiv_pos_as_xyz
  1  'x, y, z'
loop_
 _atom_site_type_symbol
 _atom_site_label
 _atom_site_symmetry_multiplicity
 _atom_site_fract_x
 _atom_site_fract_y
 _atom_site_fract_z
 _atom_site_occupancy
  Cs  Cs1  1  0.499999  0.499999  0.499999  1.0
  Cl  Cl2  1  0.000008  0.000008  0.000008  1.0
  O  O3  1  0.104416  0.686752  0.104416  1.0
  O  O4  1  0.686752  0.104416  0.104416  1.0
  O  O5  1  0.104416  0.104416  0.686752  1.0
  O  O6  1  0.104410  0.104410  0.104410  1.0
