# generated using pymatgen
data_CsLiMoO4
_symmetry_space_group_name_H-M   'P 1'
_cell_length_a   6.06619086
_cell_length_b   6.06615026
_cell_length_c   6.06619059
_cell_angle_alpha   59.99949896
_cell_angle_beta   59.99973843
_cell_angle_gamma   59.99950102
_symmetry_Int_Tables_number   1
_chemical_formula_structural   CsLiMoO4
_chemical_formula_sum   'Cs1 Li1 Mo1 O4'
_cell_volume   157.84329796
_cell_formula_units_Z   1
loop_
 _symmetry_equiv_pos_site_id
 _symmetry_equiv_pos_as_xyz
  1  'x, y, z'
loop_
 _atom_site_type_symbol
 _atom_site_label
 _atom_site_symmetry_multiplicity
 _atom_site_fract_x
 _atom_site_fract_y
 _atom_site_fract_z
 _atom_site_occupancy
  Cs  Cs1  1  0.000000  0.000000  0.000000  1.0
  Li  Li2  1  0.250000  0.250000  0.250000  1.0
  Mo  Mo3  1  0.500000  0.499999  0.500000  1.0
  O  O4  1  0.862183  0.379271  0.379273  1.0
  O  O5  1  0.379273  0.379271  0.862183  1.0
  O  O6  1  0.379274  0.379272  0.379274  1.0
  O  O7  1  0.379272  0.862185  0.379272  1.0
