# generated using pymatgen
data_LiHS
_symmetry_space_group_name_H-M   'P 1'
_cell_length_a   6.17469014
_cell_length_b   3.94442956
_cell_length_c   3.94442956
_cell_angle_alpha   91.11782423
_cell_angle_beta   90.00000000
_cell_angle_gamma   90.00000000
_symmetry_Int_Tables_number   1
_chemical_formula_structural   LiHS
_chemical_formula_sum   'Li2 H2 S2'
_cell_volume   96.05078540
_cell_formula_units_Z   2
loop_
 _symmetry_equiv_pos_site_id
 _symmetry_equiv_pos_as_xyz
  1  'x, y, z'
loop_
 _atom_site_type_symbol
 _atom_site_label
 _atom_site_symmetry_multiplicity
 _atom_site_fract_x
 _atom_site_fract_y
 _atom_site_fract_z
 _atom_site_occupancy
  Li  Li1  1  0.000000  0.501579  0.501579  1.0
  Li  Li2  1  0.500000  0.501579  0.501579  1.0
  H  H3  1  0.750000  0.983815  0.133294  1.0
  H  H4  1  0.250000  0.133294  0.983815  1.0
  S  S5  1  0.250000  0.474944  0.998790  1.0
  S  S6  1  0.750000  0.998790  0.474944  1.0
