# generated using pymatgen
data_Sm5Mg
_symmetry_space_group_name_H-M   'P 1'
_cell_length_a   6.25480900
_cell_length_b   6.25481063
_cell_length_c   6.73947674
_cell_angle_alpha   117.64826386
_cell_angle_beta   62.35173068
_cell_angle_gamma   119.99998215
_symmetry_Int_Tables_number   1
_chemical_formula_structural   Sm5Mg
_chemical_formula_sum   'Sm5 Mg1'
_cell_volume   192.79474325
_cell_formula_units_Z   1
loop_
 _symmetry_equiv_pos_site_id
 _symmetry_equiv_pos_as_xyz
  1  'x, y, z'
loop_
 _atom_site_type_symbol
 _atom_site_label
 _atom_site_symmetry_multiplicity
 _atom_site_fract_x
 _atom_site_fract_y
 _atom_site_fract_z
 _atom_site_occupancy
  Sm  Sm1  1  0.679123  0.345791  0.000000  1.0
  Sm  Sm2  1  0.987542  0.000000  0.000000  1.0
  Sm  Sm3  1  0.333333  0.654209  0.000000  1.0
  Sm  Sm4  1  0.499845  0.833488  0.500463  1.0
  Sm  Sm5  1  0.166821  0.166512  0.499537  1.0
  Mg  Mg6  1  0.833332  0.500000  0.500001  1.0
