# generated using pymatgen
data_FeOF
_symmetry_space_group_name_H-M   'P 1'
_cell_length_a   4.76335394
_cell_length_b   4.72220165
_cell_length_c   3.09482870
_cell_angle_alpha   90.00000000
_cell_angle_beta   90.00000000
_cell_angle_gamma   89.99964688
_symmetry_Int_Tables_number   1
_chemical_formula_structural   FeOF
_chemical_formula_sum   'Fe2 O2 F2'
_cell_volume   69.61358456
_cell_formula_units_Z   2
loop_
 _symmetry_equiv_pos_site_id
 _symmetry_equiv_pos_as_xyz
  1  'x, y, z'
loop_
 _atom_site_type_symbol
 _atom_site_label
 _atom_site_symmetry_multiplicity
 _atom_site_fract_x
 _atom_site_fract_y
 _atom_site_fract_z
 _atom_site_occupancy
  Fe  Fe1  1  0.995114  0.038707  0.000000  1.0
  Fe  Fe2  1  0.495109  0.461290  0.500000  1.0
  O  O3  1  0.307116  0.306276  0.000000  1.0
  O  O4  1  0.807111  0.193727  0.500000  1.0
  F  F5  1  0.197775  0.803777  0.500000  1.0
  F  F6  1  0.697775  0.696223  0.000000  1.0
