# generated using pymatgen
data_FeOF
_symmetry_space_group_name_H-M   'P 1'
_cell_length_a   4.75112656
_cell_length_b   9.43724639
_cell_length_c   3.12241477
_cell_angle_alpha   90.00000000
_cell_angle_beta   90.00000000
_cell_angle_gamma   90.10589974
_symmetry_Int_Tables_number   1
_chemical_formula_structural   FeOF
_chemical_formula_sum   'Fe4 O4 F4'
_cell_volume   140.00119541
_cell_formula_units_Z   4
loop_
 _symmetry_equiv_pos_site_id
 _symmetry_equiv_pos_as_xyz
  1  'x, y, z'
loop_
 _atom_site_type_symbol
 _atom_site_label
 _atom_site_symmetry_multiplicity
 _atom_site_fract_x
 _atom_site_fract_y
 _atom_site_fract_z
 _atom_site_occupancy
  Fe  Fe1  1  0.024033  0.988829  0.000000  1.0
  Fe  Fe2  1  0.022113  0.487880  0.000000  1.0
  Fe  Fe3  1  0.516457  0.277579  0.500000  1.0
  Fe  Fe4  1  0.451377  0.739023  0.500000  1.0
  O  O5  1  0.194900  0.400467  0.500000  1.0
  O  O6  1  0.193904  0.905350  0.500000  1.0
  O  O7  1  0.293377  0.651403  0.000000  1.0
  O  O8  1  0.702088  0.350264  0.000000  1.0
  F  F9  1  0.304885  0.151822  0.000000  1.0
  F  F10  1  0.692689  0.848853  0.000000  1.0
  F  F11  1  0.804516  0.094171  0.500000  1.0
  F  F12  1  0.799659  0.604358  0.500000  1.0
