# generated using pymatgen
data_ZnSeO4
_symmetry_space_group_name_H-M   'P 1'
_cell_length_a   6.17322232
_cell_length_b   4.92332116
_cell_length_c   4.87042614
_cell_angle_alpha   90.00000000
_cell_angle_beta   90.00000000
_cell_angle_gamma   90.00000000
_symmetry_Int_Tables_number   1
_chemical_formula_structural   ZnSeO4
_chemical_formula_sum   'Zn2 Se2 O8'
_cell_volume   148.02567365
_cell_formula_units_Z   2
loop_
 _symmetry_equiv_pos_site_id
 _symmetry_equiv_pos_as_xyz
  1  'x, y, z'
loop_
 _atom_site_type_symbol
 _atom_site_label
 _atom_site_symmetry_multiplicity
 _atom_site_fract_x
 _atom_site_fract_y
 _atom_site_fract_z
 _atom_site_occupancy
  Zn  Zn1  1  0.000000  0.901743  0.027442  1.0
  Zn  Zn2  1  0.500000  0.098257  0.527442  1.0
  Se  Se3  1  0.000000  0.341801  0.478103  1.0
  Se  Se4  1  0.500000  0.658199  0.978103  1.0
  O  O5  1  0.000000  0.665055  0.385013  1.0
  O  O6  1  0.000000  0.302497  0.816464  1.0
  O  O7  1  0.212501  0.175234  0.332451  1.0
  O  O8  1  0.287499  0.824766  0.832451  1.0
  O  O9  1  0.500000  0.697503  0.316464  1.0
  O  O10  1  0.500000  0.334945  0.885013  1.0
  O  O11  1  0.712501  0.824766  0.832451  1.0
  O  O12  1  0.787499  0.175234  0.332451  1.0
