# generated using pymatgen
data_Li2FeO3
_symmetry_space_group_name_H-M   'P 1'
_cell_length_a   5.06667542
_cell_length_b   5.06644703
_cell_length_c   6.56662961
_cell_angle_alpha   50.18548031
_cell_angle_beta   58.97291253
_cell_angle_gamma   60.14401782
_symmetry_Int_Tables_number   1
_chemical_formula_structural   Li2FeO3
_chemical_formula_sum   'Li4 Fe2 O6'
_cell_volume   107.28841762
_cell_formula_units_Z   2
loop_
 _symmetry_equiv_pos_site_id
 _symmetry_equiv_pos_as_xyz
  1  'x, y, z'
loop_
 _atom_site_type_symbol
 _atom_site_label
 _atom_site_symmetry_multiplicity
 _atom_site_fract_x
 _atom_site_fract_y
 _atom_site_fract_z
 _atom_site_occupancy
  Li  Li1  1  0.981520  0.497149  0.000762  1.0
  Li  Li2  1  0.492359  0.507534  0.499763  1.0
  Li  Li3  1  0.658145  0.173836  0.000203  1.0
  Li  Li4  1  0.332798  0.849836  0.999623  1.0
  Fe  Fe5  1  0.825125  0.839739  0.500400  1.0
  Fe  Fe6  1  0.159127  0.173590  0.500343  1.0
  O  O7  1  0.764969  0.988843  0.731729  1.0
  O  O8  1  0.205827  0.011101  0.268741  1.0
  O  O9  1  0.430913  0.704392  0.729549  1.0
  O  O10  1  0.919079  0.674563  0.270942  1.0
  O  O11  1  0.584904  0.290154  0.276895  1.0
  O  O12  1  0.052411  0.375786  0.723742  1.0
