# generated using pymatgen
data_Na2FeO3
_symmetry_space_group_name_H-M   'P 1'
_cell_length_a   6.14604416
_cell_length_b   6.44919704
_cell_length_c   5.10079238
_cell_angle_alpha   90.00000000
_cell_angle_beta   90.00000000
_cell_angle_gamma   61.54315051
_symmetry_Int_Tables_number   1
_chemical_formula_structural   Na2FeO3
_chemical_formula_sum   'Na4 Fe2 O6'
_cell_volume   177.75216617
_cell_formula_units_Z   2
loop_
 _symmetry_equiv_pos_site_id
 _symmetry_equiv_pos_as_xyz
  1  'x, y, z'
loop_
 _atom_site_type_symbol
 _atom_site_label
 _atom_site_symmetry_multiplicity
 _atom_site_fract_x
 _atom_site_fract_y
 _atom_site_fract_z
 _atom_site_occupancy
  Na  Na1  1  0.838732  0.669158  0.512053  1.0
  Na  Na2  1  0.492109  0.669158  0.012053  1.0
  Na  Na3  1  0.507891  0.330842  0.512053  1.0
  Na  Na4  1  0.161268  0.330842  0.012053  1.0
  Fe  Fe5  1  0.828211  0.000000  0.046660  1.0
  Fe  Fe6  1  0.171789  0.000000  0.546660  1.0
  O  O7  1  0.846393  0.718838  0.990949  1.0
  O  O8  1  0.434769  0.718838  0.490949  1.0
  O  O9  1  0.565231  0.281162  0.990949  1.0
  O  O10  1  0.153607  0.281162  0.490949  1.0
  O  O11  1  0.885600  0.000000  0.405337  1.0
  O  O12  1  0.114400  0.000000  0.905337  1.0
