# generated using pymatgen
data_LiZnP
_symmetry_space_group_name_H-M   'P 1'
_cell_length_a   5.75954921
_cell_length_b   5.75954921
_cell_length_c   5.75954921
_cell_angle_alpha   90.00000000
_cell_angle_beta   90.00000000
_cell_angle_gamma   90.00000000
_symmetry_Int_Tables_number   1
_chemical_formula_structural   LiZnP
_chemical_formula_sum   'Li4 Zn4 P4'
_cell_volume   191.05811112
_cell_formula_units_Z   4
loop_
 _symmetry_equiv_pos_site_id
 _symmetry_equiv_pos_as_xyz
  1  'x, y, z'
loop_
 _atom_site_type_symbol
 _atom_site_label
 _atom_site_symmetry_multiplicity
 _atom_site_fract_x
 _atom_site_fract_y
 _atom_site_fract_z
 _atom_site_occupancy
  Li  Li1  1  0.250000  0.250000  0.750000  1.0
  Li  Li2  1  0.250000  0.750000  0.250000  1.0
  Li  Li3  1  0.750000  0.250000  0.250000  1.0
  Li  Li4  1  0.750000  0.750000  0.750000  1.0
  Zn  Zn5  1  0.250000  0.250000  0.250000  1.0
  Zn  Zn6  1  0.250000  0.750000  0.750000  1.0
  Zn  Zn7  1  0.750000  0.250000  0.750000  1.0
  Zn  Zn8  1  0.750000  0.750000  0.250000  1.0
  P  P9  1  0.000000  0.000000  0.000000  1.0
  P  P10  1  0.000000  0.500000  0.500000  1.0
  P  P11  1  0.500000  0.000000  0.500000  1.0
  P  P12  1  0.500000  0.500000  0.000000  1.0
