# generated using pymatgen
data_Mn(GaS2)2
_symmetry_space_group_name_H-M   'P 1'
_cell_length_a   5.45184489
_cell_length_b   5.45184489
_cell_length_c   6.48127755
_cell_angle_alpha   114.87147122
_cell_angle_beta   114.87147122
_cell_angle_gamma   90.00000000
_symmetry_Int_Tables_number   1
_chemical_formula_structural   Mn(GaS2)2
_chemical_formula_sum   'Mn1 Ga2 S4'
_cell_volume   154.85924005
_cell_formula_units_Z   1
loop_
 _symmetry_equiv_pos_site_id
 _symmetry_equiv_pos_as_xyz
  1  'x, y, z'
loop_
 _atom_site_type_symbol
 _atom_site_label
 _atom_site_symmetry_multiplicity
 _atom_site_fract_x
 _atom_site_fract_y
 _atom_site_fract_z
 _atom_site_occupancy
  Mn  Mn1  1  0.500000  0.500000  0.000000  1.0
  Ga  Ga2  1  0.000000  0.000000  0.000000  1.0
  Ga  Ga3  1  0.250000  0.750000  0.500000  1.0
  S  S4  1  0.629597  0.113579  0.737502  1.0
  S  S5  1  0.107905  0.623923  0.737502  1.0
  S  S6  1  0.886421  0.892095  0.262498  1.0
  S  S7  1  0.376077  0.370403  0.262498  1.0
