# generated using pymatgen
data_Sr6Cu3N5
_symmetry_space_group_name_H-M   'P 1'
_cell_length_a   7.36364837
_cell_length_b   8.69477151
_cell_length_c   8.69477151
_cell_angle_alpha   90.00000000
_cell_angle_beta   90.00000000
_cell_angle_gamma   90.00000000
_symmetry_Int_Tables_number   1
_chemical_formula_structural   Sr6Cu3N5
_chemical_formula_sum   'Sr12 Cu6 N10'
_cell_volume   556.68483317
_cell_formula_units_Z   2
loop_
 _symmetry_equiv_pos_site_id
 _symmetry_equiv_pos_as_xyz
  1  'x, y, z'
loop_
 _atom_site_type_symbol
 _atom_site_label
 _atom_site_symmetry_multiplicity
 _atom_site_fract_x
 _atom_site_fract_y
 _atom_site_fract_z
 _atom_site_occupancy
  Sr  Sr1  1  0.503115  0.000000  0.000000  1.0
  Sr  Sr2  1  0.003115  0.000000  0.000000  1.0
  Sr  Sr3  1  0.022044  0.500000  0.000000  1.0
  Sr  Sr4  1  0.522044  0.000000  0.500000  1.0
  Sr  Sr5  1  0.711030  0.302831  0.266940  1.0
  Sr  Sr6  1  0.711030  0.697169  0.733060  1.0
  Sr  Sr7  1  0.211030  0.266940  0.697169  1.0
  Sr  Sr8  1  0.211030  0.733060  0.302831  1.0
  Sr  Sr9  1  0.211030  0.733060  0.697169  1.0
  Sr  Sr10  1  0.711030  0.302831  0.733060  1.0
  Sr  Sr11  1  0.711030  0.697169  0.266940  1.0
  Sr  Sr12  1  0.211030  0.266940  0.302831  1.0
  Cu  Cu13  1  0.972065  0.500000  0.500000  1.0
  Cu  Cu14  1  0.472065  0.500000  0.500000  1.0
  Cu  Cu15  1  0.433837  0.359184  0.000000  1.0
  Cu  Cu16  1  0.933837  0.000000  0.359184  1.0
  Cu  Cu17  1  0.933837  0.000000  0.640816  1.0
  Cu  Cu18  1  0.433837  0.640816  0.000000  1.0
  N  N19  1  0.631805  0.500000  0.000000  1.0
  N  N20  1  0.131805  0.000000  0.500000  1.0
  N  N21  1  0.240913  0.780817  0.000000  1.0
  N  N22  1  0.740913  0.000000  0.780817  1.0
  N  N23  1  0.740913  0.000000  0.219183  1.0
  N  N24  1  0.240913  0.219183  0.000000  1.0
  N  N25  1  0.483825  0.713032  0.500000  1.0
  N  N26  1  0.983825  0.500000  0.713032  1.0
  N  N27  1  0.983825  0.500000  0.286968  1.0
  N  N28  1  0.483825  0.286968  0.500000  1.0
