# generated using pymatgen
data_CuBr
_symmetry_space_group_name_H-M   'P 1'
_cell_length_a   4.00468346
_cell_length_b   4.00468324
_cell_length_c   4.00468271
_cell_angle_alpha   118.50094764
_cell_angle_beta   92.61665420
_cell_angle_gamma   118.50094560
_symmetry_Int_Tables_number   1
_chemical_formula_structural   CuBr
_chemical_formula_sum   'Cu1 Br1'
_cell_volume   46.39063582
_cell_formula_units_Z   1
loop_
 _symmetry_equiv_pos_site_id
 _symmetry_equiv_pos_as_xyz
  1  'x, y, z'
loop_
 _atom_site_type_symbol
 _atom_site_label
 _atom_site_symmetry_multiplicity
 _atom_site_fract_x
 _atom_site_fract_y
 _atom_site_fract_z
 _atom_site_occupancy
  Cu  Cu1  1  0.750000  0.500000  0.250000  1.0
  Br  Br2  1  0.000000  0.000000  0.000000  1.0
