# generated using pymatgen
data_LiNbO3
_symmetry_space_group_name_H-M   'P 1'
_cell_length_a   5.59239921
_cell_length_b   5.59239921
_cell_length_c   5.59239920
_cell_angle_alpha   55.67586873
_cell_angle_beta   55.67586882
_cell_angle_gamma   55.67586871
_symmetry_Int_Tables_number   1
_chemical_formula_structural   LiNbO3
_chemical_formula_sum   'Li2 Nb2 O6'
_cell_volume   111.26706393
_cell_formula_units_Z   2
loop_
 _symmetry_equiv_pos_site_id
 _symmetry_equiv_pos_as_xyz
  1  'x, y, z'
loop_
 _atom_site_type_symbol
 _atom_site_label
 _atom_site_symmetry_multiplicity
 _atom_site_fract_x
 _atom_site_fract_y
 _atom_site_fract_z
 _atom_site_occupancy
  Li  Li1  1  0.282832  0.282832  0.282832  1.0
  Li  Li2  1  0.782832  0.782832  0.782832  1.0
  Nb  Nb3  1  0.000769  0.000769  0.000769  1.0
  Nb  Nb4  1  0.500769  0.500769  0.500769  1.0
  O  O5  1  0.109632  0.360316  0.720051  1.0
  O  O6  1  0.720051  0.109632  0.360316  1.0
  O  O7  1  0.360316  0.720051  0.109632  1.0
  O  O8  1  0.860316  0.609632  0.220051  1.0
  O  O9  1  0.220051  0.860316  0.609632  1.0
  O  O10  1  0.609632  0.220051  0.860316  1.0
