# generated using pymatgen
data_NaTaN2
_symmetry_space_group_name_H-M   'P 1'
_cell_length_a   3.13803987
_cell_length_b   3.13803987
_cell_length_c   5.98720896
_cell_angle_alpha   74.80754677
_cell_angle_beta   74.80754677
_cell_angle_gamma   59.99999043
_symmetry_Int_Tables_number   1
_chemical_formula_structural   NaTaN2
_chemical_formula_sum   'Na1 Ta1 N2'
_cell_volume   48.66513874
_cell_formula_units_Z   1
loop_
 _symmetry_equiv_pos_site_id
 _symmetry_equiv_pos_as_xyz
  1  'x, y, z'
loop_
 _atom_site_type_symbol
 _atom_site_label
 _atom_site_symmetry_multiplicity
 _atom_site_fract_x
 _atom_site_fract_y
 _atom_site_fract_z
 _atom_site_occupancy
  Na  Na1  1  0.500000  0.500000  0.500000  1.0
  Ta  Ta2  1  0.000000  0.000000  0.000000  1.0
  N  N3  1  0.269159  0.269159  0.192524  1.0
  N  N4  1  0.730841  0.730841  0.807476  1.0
