# generated using pymatgen
data_AlHO2
_symmetry_space_group_name_H-M   'P 1'
_cell_length_a   6.29390687
_cell_length_b   6.29390687
_cell_length_c   3.73653119
_cell_angle_alpha   90.00000000
_cell_angle_beta   90.00000000
_cell_angle_gamma   26.61772944
_symmetry_Int_Tables_number   1
_chemical_formula_structural   AlHO2
_chemical_formula_sum   'Al2 H2 O4'
_cell_volume   66.31654721
_cell_formula_units_Z   2
loop_
 _symmetry_equiv_pos_site_id
 _symmetry_equiv_pos_as_xyz
  1  'x, y, z'
loop_
 _atom_site_type_symbol
 _atom_site_label
 _atom_site_symmetry_multiplicity
 _atom_site_fract_x
 _atom_site_fract_y
 _atom_site_fract_z
 _atom_site_occupancy
  Al  Al1  1  0.681343  0.681343  0.250088  1.0
  Al  Al2  1  0.318657  0.318657  0.750088  1.0
  H  H3  1  0.022326  0.022326  0.436452  1.0
  H  H4  1  0.977674  0.977674  0.936452  1.0
  O  O5  1  0.290202  0.290202  0.250698  1.0
  O  O6  1  0.709798  0.709798  0.750698  1.0
  O  O7  1  0.079467  0.079467  0.244416  1.0
  O  O8  1  0.920533  0.920533  0.744416  1.0
