# generated using pymatgen
data_Ba4As2O
_symmetry_space_group_name_H-M   'P 1'
_cell_length_a   5.22748901
_cell_length_b   5.22748901
_cell_length_c   9.47283363
_cell_angle_alpha   106.01684922
_cell_angle_beta   106.01684919
_cell_angle_gamma   89.99999998
_symmetry_Int_Tables_number   1
_chemical_formula_structural   Ba4As2O
_chemical_formula_sum   'Ba4 As2 O1'
_cell_volume   238.33978943
_cell_formula_units_Z   1
loop_
 _symmetry_equiv_pos_site_id
 _symmetry_equiv_pos_as_xyz
  1  'x, y, z'
loop_
 _atom_site_type_symbol
 _atom_site_label
 _atom_site_symmetry_multiplicity
 _atom_site_fract_x
 _atom_site_fract_y
 _atom_site_fract_z
 _atom_site_occupancy
  Ba  Ba1  1  0.675939  0.675939  0.351877  1.0
  Ba  Ba2  1  0.324061  0.324061  0.648123  1.0
  Ba  Ba3  1  0.000000  0.500000  0.000000  1.0
  Ba  Ba4  1  0.500000  0.000000  0.000000  1.0
  As  As5  1  0.864323  0.864323  0.728645  1.0
  As  As6  1  0.135677  0.135677  0.271355  1.0
  O  O7  1  0.500000  0.500000  0.000000  1.0
