# generated using pymatgen
data_PtF4
_symmetry_space_group_name_H-M   'P 1'
_cell_length_a   5.60424167
_cell_length_b   5.60424167
_cell_length_c   5.69048488
_cell_angle_alpha   106.27942731
_cell_angle_beta   106.27942742
_cell_angle_gamma   115.51378036
_symmetry_Int_Tables_number   1
_chemical_formula_structural   PtF4
_chemical_formula_sum   'Pt2 F8'
_cell_volume   137.23617522
_cell_formula_units_Z   2
loop_
 _symmetry_equiv_pos_site_id
 _symmetry_equiv_pos_as_xyz
  1  'x, y, z'
loop_
 _atom_site_type_symbol
 _atom_site_label
 _atom_site_symmetry_multiplicity
 _atom_site_fract_x
 _atom_site_fract_y
 _atom_site_fract_z
 _atom_site_occupancy
  Pt  Pt1  1  0.753309  0.253309  0.500000  1.0
  Pt  Pt2  1  0.003309  0.003309  0.000000  1.0
  F  F3  1  0.991497  0.763463  0.182123  1.0
  F  F4  1  0.581340  0.809374  0.817877  1.0
  F  F5  1  0.033596  0.305649  0.317392  1.0
  F  F6  1  0.988257  0.716204  0.682608  1.0
  F  F7  1  0.055649  0.283596  0.817392  1.0
  F  F8  1  0.466204  0.238257  0.182608  1.0
  F  F9  1  0.559374  0.831340  0.317877  1.0
  F  F10  1  0.513463  0.241497  0.682123  1.0
