# generated using pymatgen
data_Ca(Al2Cu)4
_symmetry_space_group_name_H-M   'P 1'
_cell_length_a   5.12135992
_cell_length_b   6.77002942
_cell_length_c   6.77002942
_cell_angle_alpha   81.77483083
_cell_angle_beta   67.77543928
_cell_angle_gamma   67.77543925
_symmetry_Int_Tables_number   1
_chemical_formula_structural   Ca(Al2Cu)4
_chemical_formula_sum   'Ca1 Al8 Cu4'
_cell_volume   201.14764100
_cell_formula_units_Z   1
loop_
 _symmetry_equiv_pos_site_id
 _symmetry_equiv_pos_as_xyz
  1  'x, y, z'
loop_
 _atom_site_type_symbol
 _atom_site_label
 _atom_site_symmetry_multiplicity
 _atom_site_fract_x
 _atom_site_fract_y
 _atom_site_fract_z
 _atom_site_occupancy
  Ca  Ca1  1  0.000000  0.000000  0.000000  1.0
  Al  Al2  1  0.348698  0.651302  0.651302  1.0
  Al  Al3  1  0.000000  0.348698  0.651302  1.0
  Al  Al4  1  0.000000  0.651302  0.348698  1.0
  Al  Al5  1  0.651302  0.348698  0.348698  1.0
  Al  Al6  1  0.280014  0.219986  0.219986  1.0
  Al  Al7  1  0.500000  0.780014  0.219986  1.0
  Al  Al8  1  0.500000  0.219986  0.780014  1.0
  Al  Al9  1  0.719986  0.780014  0.780014  1.0
  Cu  Cu10  1  0.500000  0.000000  0.500000  1.0
  Cu  Cu11  1  0.000000  0.500000  0.000000  1.0
  Cu  Cu12  1  0.500000  0.500000  0.000000  1.0
  Cu  Cu13  1  0.000000  0.000000  0.500000  1.0
