# generated using pymatgen
data_Mg2Rh
_symmetry_space_group_name_H-M   'P 1'
_cell_length_a   3.22617729
_cell_length_b   3.22617729
_cell_length_c   5.48800975
_cell_angle_alpha   107.09336402
_cell_angle_beta   107.09336403
_cell_angle_gamma   90.00000009
_symmetry_Int_Tables_number   1
_chemical_formula_structural   Mg2Rh
_chemical_formula_sum   'Mg2 Rh1'
_cell_volume   51.95165882
_cell_formula_units_Z   1
loop_
 _symmetry_equiv_pos_site_id
 _symmetry_equiv_pos_as_xyz
  1  'x, y, z'
loop_
 _atom_site_type_symbol
 _atom_site_label
 _atom_site_symmetry_multiplicity
 _atom_site_fract_x
 _atom_site_fract_y
 _atom_site_fract_z
 _atom_site_occupancy
  Mg  Mg1  1  0.644422  0.644422  0.288844  1.0
  Mg  Mg2  1  0.355578  0.355578  0.711156  1.0
  Rh  Rh3  1  0.000000  0.000000  0.000000  1.0
