# generated using pymatgen
data_ReSi2
_symmetry_space_group_name_H-M   'P 1'
_cell_length_a   3.19592046
_cell_length_b   3.19592059
_cell_length_c   4.53587077
_cell_angle_alpha   110.62769152
_cell_angle_beta   110.62768314
_cell_angle_gamma   90.00000419
_symmetry_Int_Tables_number   1
_chemical_formula_structural   ReSi2
_chemical_formula_sum   'Re1 Si2'
_cell_volume   40.16959029
_cell_formula_units_Z   1
loop_
 _symmetry_equiv_pos_site_id
 _symmetry_equiv_pos_as_xyz
  1  'x, y, z'
loop_
 _atom_site_type_symbol
 _atom_site_label
 _atom_site_symmetry_multiplicity
 _atom_site_fract_x
 _atom_site_fract_y
 _atom_site_fract_z
 _atom_site_occupancy
  Re  Re1  1  0.000000  0.000000  0.000000  1.0
  Si  Si2  1  0.668656  0.668656  0.337314  1.0
  Si  Si3  1  0.331344  0.331344  0.662686  1.0
