# generated using pymatgen
data_Na2HgO2
_symmetry_space_group_name_H-M   'P 1'
_cell_length_a   3.46870569
_cell_length_b   3.46870569
_cell_length_c   7.19059835
_cell_angle_alpha   103.95721629
_cell_angle_beta   103.95721628
_cell_angle_gamma   90.00000001
_symmetry_Int_Tables_number   1
_chemical_formula_structural   Na2HgO2
_chemical_formula_sum   'Na2 Hg1 O2'
_cell_volume   81.32789280
_cell_formula_units_Z   1
loop_
 _symmetry_equiv_pos_site_id
 _symmetry_equiv_pos_as_xyz
  1  'x, y, z'
loop_
 _atom_site_type_symbol
 _atom_site_label
 _atom_site_symmetry_multiplicity
 _atom_site_fract_x
 _atom_site_fract_y
 _atom_site_fract_z
 _atom_site_occupancy
  Na  Na1  1  0.676471  0.676471  0.352942  1.0
  Na  Na2  1  0.323529  0.323529  0.647058  1.0
  Hg  Hg3  1  0.000000  0.000000  0.000000  1.0
  O  O4  1  0.851067  0.851067  0.702134  1.0
  O  O5  1  0.148933  0.148933  0.297866  1.0
