# generated using pymatgen
data_TbCoSi2
_symmetry_space_group_name_H-M   'P 1'
_cell_length_a   3.99297599
_cell_length_b   4.04566543
_cell_length_c   8.34714448
_cell_angle_alpha   104.02459025
_cell_angle_beta   90.00000000
_cell_angle_gamma   90.00000000
_symmetry_Int_Tables_number   1
_chemical_formula_structural   TbCoSi2
_chemical_formula_sum   'Tb2 Co2 Si4'
_cell_volume   130.82242570
_cell_formula_units_Z   2
loop_
 _symmetry_equiv_pos_site_id
 _symmetry_equiv_pos_as_xyz
  1  'x, y, z'
loop_
 _atom_site_type_symbol
 _atom_site_label
 _atom_site_symmetry_multiplicity
 _atom_site_fract_x
 _atom_site_fract_y
 _atom_site_fract_z
 _atom_site_occupancy
  Tb  Tb1  1  0.250000  0.892767  0.785534  1.0
  Tb  Tb2  1  0.750000  0.107233  0.214466  1.0
  Co  Co3  1  0.750000  0.320161  0.640322  1.0
  Co  Co4  1  0.250000  0.679838  0.359678  1.0
  Si  Si5  1  0.250000  0.249792  0.499584  1.0
  Si  Si6  1  0.750000  0.750208  0.500416  1.0
  Si  Si7  1  0.750000  0.457304  0.914610  1.0
  Si  Si8  1  0.250000  0.542696  0.085390  1.0
