# generated using pymatgen
data_Sc2NCl2
_symmetry_space_group_name_H-M   'P 1'
_cell_length_a   3.36966248
_cell_length_b   3.36966248
_cell_length_c   9.56576641
_cell_angle_alpha   90.00000000
_cell_angle_beta   90.00000000
_cell_angle_gamma   120.00000000
_symmetry_Int_Tables_number   1
_chemical_formula_structural   Sc2NCl2
_chemical_formula_sum   'Sc2 N1 Cl2'
_cell_volume   94.06394905
_cell_formula_units_Z   1
loop_
 _symmetry_equiv_pos_site_id
 _symmetry_equiv_pos_as_xyz
  1  'x, y, z'
loop_
 _atom_site_type_symbol
 _atom_site_label
 _atom_site_symmetry_multiplicity
 _atom_site_fract_x
 _atom_site_fract_y
 _atom_site_fract_z
 _atom_site_occupancy
  Sc  Sc1  1  0.666667  0.333333  0.624222  1.0
  Sc  Sc2  1  0.333333  0.666667  0.375778  1.0
  N  N3  1  0.000000  0.000000  0.500000  1.0
  Cl  Cl4  1  0.666667  0.333333  0.199302  1.0
  Cl  Cl5  1  0.333333  0.666667  0.800698  1.0
