# generated using pymatgen
data_Bi
_symmetry_space_group_name_H-M   'P 1'
_cell_length_a   3.35892599
_cell_length_b   4.68864222
_cell_length_c   4.68864222
_cell_angle_alpha   83.84434850
_cell_angle_beta   73.78985574
_cell_angle_gamma   73.78985596
_symmetry_Int_Tables_number   1
_chemical_formula_structural   Bi
_chemical_formula_sum   Bi2
_cell_volume   68.05165953
_cell_formula_units_Z   2
loop_
 _symmetry_equiv_pos_site_id
 _symmetry_equiv_pos_as_xyz
  1  'x, y, z'
loop_
 _atom_site_type_symbol
 _atom_site_label
 _atom_site_symmetry_multiplicity
 _atom_site_fract_x
 _atom_site_fract_y
 _atom_site_fract_z
 _atom_site_occupancy
  Bi  Bi1  1  0.857382  0.246939  0.246939  1.0
  Bi  Bi2  1  0.142618  0.753061  0.753061  1.0
