# generated using pymatgen
data_LaCoGe3
_symmetry_space_group_name_H-M   'P 1'
_cell_length_a   4.35987792
_cell_length_b   4.35987793
_cell_length_c   5.84111258
_cell_angle_alpha   111.91348341
_cell_angle_beta   111.91348337
_cell_angle_gamma   89.99999997
_symmetry_Int_Tables_number   1
_chemical_formula_structural   LaCoGe3
_chemical_formula_sum   'La1 Co1 Ge3'
_cell_volume   94.30672305
_cell_formula_units_Z   1
loop_
 _symmetry_equiv_pos_site_id
 _symmetry_equiv_pos_as_xyz
  1  'x, y, z'
loop_
 _atom_site_type_symbol
 _atom_site_label
 _atom_site_symmetry_multiplicity
 _atom_site_fract_x
 _atom_site_fract_y
 _atom_site_fract_z
 _atom_site_occupancy
  La  La1  1  0.339197  0.339197  0.678394  1.0
  Co  Co2  1  0.003793  0.003793  0.007587  1.0
  Ge  Ge3  1  0.596840  0.096840  0.193679  1.0
  Ge  Ge4  1  0.771230  0.771230  0.542461  1.0
  Ge  Ge5  1  0.096840  0.596840  0.193679  1.0
