# generated using pymatgen
data_Ba3In2O5F2
_symmetry_space_group_name_H-M   'P 1'
_cell_length_a   4.24865473
_cell_length_b   4.24865474
_cell_length_c   11.97830887
_cell_angle_alpha   100.21531780
_cell_angle_beta   100.21531778
_cell_angle_gamma   90.00000003
_symmetry_Int_Tables_number   1
_chemical_formula_structural   Ba3In2O5F2
_chemical_formula_sum   'Ba3 In2 O5 F2'
_cell_volume   209.31015914
_cell_formula_units_Z   1
loop_
 _symmetry_equiv_pos_site_id
 _symmetry_equiv_pos_as_xyz
  1  'x, y, z'
loop_
 _atom_site_type_symbol
 _atom_site_label
 _atom_site_symmetry_multiplicity
 _atom_site_fract_x
 _atom_site_fract_y
 _atom_site_fract_z
 _atom_site_occupancy
  Ba  Ba1  1  0.500000  0.500000  0.000000  1.0
  Ba  Ba2  1  0.676152  0.676152  0.352305  1.0
  Ba  Ba3  1  0.323848  0.323848  0.647695  1.0
  In  In4  1  0.908922  0.908922  0.817843  1.0
  In  In5  1  0.091078  0.091078  0.182157  1.0
  O  O6  1  0.103695  0.603695  0.207390  1.0
  O  O7  1  0.603695  0.103695  0.207390  1.0
  O  O8  1  0.000000  0.000000  0.000000  1.0
  O  O9  1  0.896305  0.396305  0.792610  1.0
  O  O10  1  0.396305  0.896305  0.792610  1.0
  F  F11  1  0.205094  0.205094  0.410187  1.0
  F  F12  1  0.794906  0.794906  0.589813  1.0
