# generated using pymatgen
data_HgBr
_symmetry_space_group_name_H-M   'P 1'
_cell_length_a   4.96058609
_cell_length_b   4.96058609
_cell_length_c   6.66579426
_cell_angle_alpha   111.84473441
_cell_angle_beta   111.84473436
_cell_angle_gamma   90.00000002
_symmetry_Int_Tables_number   1
_chemical_formula_structural   HgBr
_chemical_formula_sum   'Hg2 Br2'
_cell_volume   139.48108036
_cell_formula_units_Z   2
loop_
 _symmetry_equiv_pos_site_id
 _symmetry_equiv_pos_as_xyz
  1  'x, y, z'
loop_
 _atom_site_type_symbol
 _atom_site_label
 _atom_site_symmetry_multiplicity
 _atom_site_fract_x
 _atom_site_fract_y
 _atom_site_fract_z
 _atom_site_occupancy
  Hg  Hg1  1  0.884055  0.884055  0.768111  1.0
  Hg  Hg2  1  0.115945  0.115945  0.231889  1.0
  Br  Br3  1  0.656804  0.656804  0.313609  1.0
  Br  Br4  1  0.343196  0.343196  0.686391  1.0
