# generated using pymatgen
data_Tl(CuSe)2
_symmetry_space_group_name_H-M   'P 1'
_cell_length_a   3.86909760
_cell_length_b   3.86909760
_cell_length_c   7.70840560
_cell_angle_alpha   104.53469076
_cell_angle_beta   104.53469071
_cell_angle_gamma   90.00000004
_symmetry_Int_Tables_number   1
_chemical_formula_structural   Tl(CuSe)2
_chemical_formula_sum   'Tl1 Cu2 Se2'
_cell_volume   107.88165330
_cell_formula_units_Z   1
loop_
 _symmetry_equiv_pos_site_id
 _symmetry_equiv_pos_as_xyz
  1  'x, y, z'
loop_
 _atom_site_type_symbol
 _atom_site_label
 _atom_site_symmetry_multiplicity
 _atom_site_fract_x
 _atom_site_fract_y
 _atom_site_fract_z
 _atom_site_occupancy
  Tl  Tl1  1  0.000000  0.000000  0.000000  1.0
  Cu  Cu2  1  0.250000  0.750000  0.500000  1.0
  Cu  Cu3  1  0.750000  0.250000  0.500000  1.0
  Se  Se4  1  0.643001  0.643001  0.286001  1.0
  Se  Se5  1  0.356999  0.356999  0.713999  1.0
