# generated using pymatgen
data_NaCoO2
_symmetry_space_group_name_H-M   'P 1'
_cell_length_a   2.82027974
_cell_length_b   6.34463488
_cell_length_c   4.76012793
_cell_angle_alpha   90.01694287
_cell_angle_beta   89.99942943
_cell_angle_gamma   90.00264941
_symmetry_Int_Tables_number   1
_chemical_formula_structural   NaCoO2
_chemical_formula_sum   'Na2 Co2 O4'
_cell_volume   85.17603651
_cell_formula_units_Z   2
loop_
 _symmetry_equiv_pos_site_id
 _symmetry_equiv_pos_as_xyz
  1  'x, y, z'
loop_
 _atom_site_type_symbol
 _atom_site_label
 _atom_site_symmetry_multiplicity
 _atom_site_fract_x
 _atom_site_fract_y
 _atom_site_fract_z
 _atom_site_occupancy
  Na  Na1  1  0.250003  0.126857  0.249972  1.0
  Na  Na2  1  0.749999  0.873198  0.750061  1.0
  Co  Co3  1  0.250000  0.623063  0.250115  1.0
  Co  Co4  1  0.749990  0.376869  0.749810  1.0
  O  O5  1  0.250010  0.579545  0.749705  1.0
  O  O6  1  0.249994  0.173265  0.750219  1.0
  O  O7  1  0.750009  0.420413  0.250633  1.0
  O  O8  1  0.749995  0.826789  0.249486  1.0
