# generated using pymatgen
data_YCo3B2
_symmetry_space_group_name_H-M   'P 1'
_cell_length_a   3.00588764
_cell_length_b   5.01978579
_cell_length_c   5.02172579
_cell_angle_alpha   119.98721744
_cell_angle_beta   90.00000000
_cell_angle_gamma   90.00000000
_symmetry_Int_Tables_number   1
_chemical_formula_structural   YCo3B2
_chemical_formula_sum   'Y1 Co3 B2'
_cell_volume   65.62925567
_cell_formula_units_Z   1
loop_
 _symmetry_equiv_pos_site_id
 _symmetry_equiv_pos_as_xyz
  1  'x, y, z'
loop_
 _atom_site_type_symbol
 _atom_site_label
 _atom_site_symmetry_multiplicity
 _atom_site_fract_x
 _atom_site_fract_y
 _atom_site_fract_z
 _atom_site_occupancy
  Y  Y1  1  0.000000  0.999999  0.000000  1.0
  Co  Co2  1  0.500000  0.499998  0.000000  1.0
  Co  Co3  1  0.500000  0.499999  0.500000  1.0
  Co  Co4  1  0.500000  0.999999  0.500000  1.0
  B  B5  1  0.000000  0.333281  0.666656  1.0
  B  B6  1  0.000000  0.666625  0.333344  1.0
