# generated using pymatgen
data_CuAgS
_symmetry_space_group_name_H-M   'P 1'
_cell_length_a   4.01938480
_cell_length_b   6.62032943
_cell_length_c   8.29049718
_cell_angle_alpha   90.00000000
_cell_angle_beta   90.00000000
_cell_angle_gamma   90.00000000
_symmetry_Int_Tables_number   1
_chemical_formula_structural   CuAgS
_chemical_formula_sum   'Cu4 Ag4 S4'
_cell_volume   220.60724057
_cell_formula_units_Z   4
loop_
 _symmetry_equiv_pos_site_id
 _symmetry_equiv_pos_as_xyz
  1  'x, y, z'
loop_
 _atom_site_type_symbol
 _atom_site_label
 _atom_site_symmetry_multiplicity
 _atom_site_fract_x
 _atom_site_fract_y
 _atom_site_fract_z
 _atom_site_occupancy
  Cu  Cu1  1  0.000000  0.547224  0.722286  1.0
  Cu  Cu2  1  0.000000  0.452776  0.222286  1.0
  Cu  Cu3  1  0.500000  0.047038  0.745056  1.0
  Cu  Cu4  1  0.500000  0.952962  0.245056  1.0
  Ag  Ag5  1  0.500000  0.572699  0.469227  1.0
  Ag  Ag6  1  0.500000  0.427301  0.969227  1.0
  Ag  Ag7  1  0.000000  0.072700  0.997901  1.0
  Ag  Ag8  1  0.000000  0.927300  0.497901  1.0
  S  S9  1  0.500000  0.304847  0.254251  1.0
  S  S10  1  0.500000  0.695153  0.754251  1.0
  S  S11  1  0.000000  0.804826  0.212878  1.0
  S  S12  1  0.000000  0.195174  0.712878  1.0
