# generated using pymatgen
data_UAlRh
_symmetry_space_group_name_H-M   'P 1'
_cell_length_a   6.81965077
_cell_length_b   6.81965077
_cell_length_c   4.18177754
_cell_angle_alpha   90.00000000
_cell_angle_beta   90.00000000
_cell_angle_gamma   120.00000004
_symmetry_Int_Tables_number   1
_chemical_formula_structural   UAlRh
_chemical_formula_sum   'U3 Al3 Rh3'
_cell_volume   168.42859576
_cell_formula_units_Z   3
loop_
 _symmetry_equiv_pos_site_id
 _symmetry_equiv_pos_as_xyz
  1  'x, y, z'
loop_
 _atom_site_type_symbol
 _atom_site_label
 _atom_site_symmetry_multiplicity
 _atom_site_fract_x
 _atom_site_fract_y
 _atom_site_fract_z
 _atom_site_occupancy
  U  U1  1  0.574114  0.000000  0.500000  1.0
  U  U2  1  0.425886  0.425886  0.500000  1.0
  U  U3  1  0.000000  0.574114  0.500000  1.0
  Al  Al4  1  0.234519  0.000000  0.000000  1.0
  Al  Al5  1  0.765481  0.765481  0.000000  1.0
  Al  Al6  1  0.000000  0.234519  0.000000  1.0
  Rh  Rh7  1  0.000000  0.000000  0.500000  1.0
  Rh  Rh8  1  0.333333  0.666667  0.000000  1.0
  Rh  Rh9  1  0.666667  0.333333  0.000000  1.0
