# generated using pymatgen
data_Ce4B2N5
_symmetry_space_group_name_H-M   'P 1'
_cell_length_a   3.54653186
_cell_length_b   6.32165585
_cell_length_c   7.12345005
_cell_angle_alpha   82.89174799
_cell_angle_beta   75.58558403
_cell_angle_gamma   73.70955995
_symmetry_Int_Tables_number   1
_chemical_formula_structural   Ce4B2N5
_chemical_formula_sum   'Ce4 B2 N5'
_cell_volume   148.21993060
_cell_formula_units_Z   1
loop_
 _symmetry_equiv_pos_site_id
 _symmetry_equiv_pos_as_xyz
  1  'x, y, z'
loop_
 _atom_site_type_symbol
 _atom_site_label
 _atom_site_symmetry_multiplicity
 _atom_site_fract_x
 _atom_site_fract_y
 _atom_site_fract_z
 _atom_site_occupancy
  Ce  Ce1  1  0.074664  0.198516  0.652156  1.0
  Ce  Ce2  1  0.925336  0.801484  0.347844  1.0
  Ce  Ce3  1  0.687395  0.737970  0.887241  1.0
  Ce  Ce4  1  0.312605  0.262030  0.112759  1.0
  B  B5  1  0.411139  0.568173  0.609549  1.0
  B  B6  1  0.588861  0.431827  0.390451  1.0
  N  N7  1  0.291596  0.813492  0.603316  1.0
  N  N8  1  0.708404  0.186508  0.396684  1.0
  N  N9  1  0.000000  0.000000  0.000000  1.0
  N  N10  1  0.379646  0.439524  0.801183  1.0
  N  N11  1  0.620354  0.560476  0.198817  1.0
