# generated using pymatgen
data_Yb(SiRu)2
_symmetry_space_group_name_H-M   'P 1'
_cell_length_a   4.22228692
_cell_length_b   4.22228665
_cell_length_c   5.58153027
_cell_angle_alpha   112.22455444
_cell_angle_beta   112.22455342
_cell_angle_gamma   89.99999846
_symmetry_Int_Tables_number   1
_chemical_formula_structural   Yb(SiRu)2
_chemical_formula_sum   'Yb1 Si2 Ru2'
_cell_volume   84.07350277
_cell_formula_units_Z   1
loop_
 _symmetry_equiv_pos_site_id
 _symmetry_equiv_pos_as_xyz
  1  'x, y, z'
loop_
 _atom_site_type_symbol
 _atom_site_label
 _atom_site_symmetry_multiplicity
 _atom_site_fract_x
 _atom_site_fract_y
 _atom_site_fract_z
 _atom_site_occupancy
  Yb  Yb1  1  0.000000  0.000000  0.000000  1.0
  Si  Si2  1  0.634358  0.634358  0.268717  1.0
  Si  Si3  1  0.365642  0.365642  0.731283  1.0
  Ru  Ru4  1  0.750000  0.250000  0.500000  1.0
  Ru  Ru5  1  0.250000  0.750000  0.500000  1.0
