# generated using pymatgen
data_PrCl3
_symmetry_space_group_name_H-M   'P 1'
_cell_length_a   7.55425488
_cell_length_b   7.55425489
_cell_length_c   4.31137300
_cell_angle_alpha   90.00000000
_cell_angle_beta   90.00000000
_cell_angle_gamma   119.99999998
_symmetry_Int_Tables_number   1
_chemical_formula_structural   PrCl3
_chemical_formula_sum   'Pr2 Cl6'
_cell_volume   213.07352837
_cell_formula_units_Z   2
loop_
 _symmetry_equiv_pos_site_id
 _symmetry_equiv_pos_as_xyz
  1  'x, y, z'
loop_
 _atom_site_type_symbol
 _atom_site_label
 _atom_site_symmetry_multiplicity
 _atom_site_fract_x
 _atom_site_fract_y
 _atom_site_fract_z
 _atom_site_occupancy
  Pr  Pr1  1  0.666667  0.333333  0.750000  1.0
  Pr  Pr2  1  0.333333  0.666667  0.250000  1.0
  Cl  Cl3  1  0.608825  0.694845  0.750000  1.0
  Cl  Cl4  1  0.913979  0.608825  0.250000  1.0
  Cl  Cl5  1  0.391175  0.305155  0.250000  1.0
  Cl  Cl6  1  0.086020  0.391175  0.750000  1.0
  Cl  Cl7  1  0.305155  0.913979  0.750000  1.0
  Cl  Cl8  1  0.694845  0.086020  0.250000  1.0
