# generated using pymatgen
data_BaCO3
_symmetry_space_group_name_H-M   'P 1'
_cell_length_a   4.65732837
_cell_length_b   5.43441886
_cell_length_c   6.15233542
_cell_angle_alpha   90.00000000
_cell_angle_beta   103.63575760
_cell_angle_gamma   90.00000000
_symmetry_Int_Tables_number   1
_chemical_formula_structural   BaCO3
_chemical_formula_sum   'Ba2 C2 O6'
_cell_volume   151.32586042
_cell_formula_units_Z   2
loop_
 _symmetry_equiv_pos_site_id
 _symmetry_equiv_pos_as_xyz
  1  'x, y, z'
loop_
 _atom_site_type_symbol
 _atom_site_label
 _atom_site_symmetry_multiplicity
 _atom_site_fract_x
 _atom_site_fract_y
 _atom_site_fract_z
 _atom_site_occupancy
  Ba  Ba1  1  0.122828  0.268839  0.766420  1.0
  Ba  Ba2  1  0.877172  0.768839  0.233580  1.0
  C  C3  1  0.503179  0.768788  0.744097  1.0
  C  C4  1  0.496821  0.268788  0.255903  1.0
  O  O5  1  0.220133  0.768806  0.653776  1.0
  O  O6  1  0.640805  0.561062  0.795905  1.0
  O  O7  1  0.641018  0.976506  0.795097  1.0
  O  O8  1  0.359195  0.061062  0.204095  1.0
  O  O9  1  0.358982  0.476506  0.204903  1.0
  O  O10  1  0.779867  0.268806  0.346224  1.0
