# generated using pymatgen
data_CuBr2
_symmetry_space_group_name_H-M   'P 1'
_cell_length_a   3.49255838
_cell_length_b   4.22377851
_cell_length_c   6.45183408
_cell_angle_alpha   87.28201380
_cell_angle_beta   74.29621775
_cell_angle_gamma   65.57888269
_symmetry_Int_Tables_number   1
_chemical_formula_structural   CuBr2
_chemical_formula_sum   'Cu1 Br2'
_cell_volume   83.20007686
_cell_formula_units_Z   1
loop_
 _symmetry_equiv_pos_site_id
 _symmetry_equiv_pos_as_xyz
  1  'x, y, z'
loop_
 _atom_site_type_symbol
 _atom_site_label
 _atom_site_symmetry_multiplicity
 _atom_site_fract_x
 _atom_site_fract_y
 _atom_site_fract_z
 _atom_site_occupancy
  Cu  Cu1  1  0.000000  0.000000  0.000000  1.0
  Br  Br2  1  0.267375  0.223251  0.241999  1.0
  Br  Br3  1  0.732625  0.776749  0.758001  1.0
