# generated using pymatgen
data_Cs2UO4
_symmetry_space_group_name_H-M   'P 1'
_cell_length_a   4.42602419
_cell_length_b   4.42602419
_cell_length_c   8.28285019
_cell_angle_alpha   105.49653044
_cell_angle_beta   105.49653039
_cell_angle_gamma   89.99999993
_symmetry_Int_Tables_number   1
_chemical_formula_structural   Cs2UO4
_chemical_formula_sum   'Cs2 U1 O4'
_cell_volume   150.22975892
_cell_formula_units_Z   1
loop_
 _symmetry_equiv_pos_site_id
 _symmetry_equiv_pos_as_xyz
  1  'x, y, z'
loop_
 _atom_site_type_symbol
 _atom_site_label
 _atom_site_symmetry_multiplicity
 _atom_site_fract_x
 _atom_site_fract_y
 _atom_site_fract_z
 _atom_site_occupancy
  Cs  Cs1  1  0.345881  0.345881  0.691763  1.0
  Cs  Cs2  1  0.654119  0.654119  0.308237  1.0
  U  U3  1  0.000000  0.000000  0.000000  1.0
  O  O4  1  0.872987  0.872987  0.745974  1.0
  O  O5  1  0.127013  0.127013  0.254026  1.0
  O  O6  1  0.000000  0.500000  0.000000  1.0
  O  O7  1  0.500000  0.000000  0.000000  1.0
