# generated using pymatgen
data_FeCl2
_symmetry_space_group_name_H-M   'P 1'
_cell_length_a   6.97431364
_cell_length_b   6.97431364
_cell_length_c   6.97431364
_cell_angle_alpha   29.27171400
_cell_angle_beta   29.27171401
_cell_angle_gamma   29.27171397
_symmetry_Int_Tables_number   1
_chemical_formula_structural   FeCl2
_chemical_formula_sum   'Fe1 Cl2'
_cell_volume   71.76289254
_cell_formula_units_Z   1
loop_
 _symmetry_equiv_pos_site_id
 _symmetry_equiv_pos_as_xyz
  1  'x, y, z'
loop_
 _atom_site_type_symbol
 _atom_site_label
 _atom_site_symmetry_multiplicity
 _atom_site_fract_x
 _atom_site_fract_y
 _atom_site_fract_z
 _atom_site_occupancy
  Fe  Fe1  1  0.000000  0.000000  0.000000  1.0
  Cl  Cl2  1  0.736716  0.736716  0.736716  1.0
  Cl  Cl3  1  0.263284  0.263284  0.263284  1.0
