# generated using pymatgen
data_YMgIn
_symmetry_space_group_name_H-M   'P 1'
_cell_length_a   7.55157563
_cell_length_b   7.55157564
_cell_length_c   4.68719107
_cell_angle_alpha   90.00000000
_cell_angle_beta   90.00000000
_cell_angle_gamma   120.00000001
_symmetry_Int_Tables_number   1
_chemical_formula_structural   YMgIn
_chemical_formula_sum   'Y3 Mg3 In3'
_cell_volume   231.48264832
_cell_formula_units_Z   3
loop_
 _symmetry_equiv_pos_site_id
 _symmetry_equiv_pos_as_xyz
  1  'x, y, z'
loop_
 _atom_site_type_symbol
 _atom_site_label
 _atom_site_symmetry_multiplicity
 _atom_site_fract_x
 _atom_site_fract_y
 _atom_site_fract_z
 _atom_site_occupancy
  Y  Y1  1  0.566039  0.000000  0.000000  1.0
  Y  Y2  1  0.433961  0.433961  0.000000  1.0
  Y  Y3  1  0.000000  0.566039  0.000000  1.0
  Mg  Mg4  1  0.757908  0.757908  0.500000  1.0
  Mg  Mg5  1  0.000000  0.242092  0.500000  1.0
  Mg  Mg6  1  0.242092  0.000000  0.500000  1.0
  In  In7  1  0.333333  0.666667  0.500000  1.0
  In  In8  1  0.666667  0.333333  0.500000  1.0
  In  In9  1  0.000000  0.000000  0.000000  1.0
