# generated using pymatgen
data_LiBiF4
_symmetry_space_group_name_H-M   'P 1'
_cell_length_a   5.36535042
_cell_length_b   5.36583551
_cell_length_c   6.80233082
_cell_angle_alpha   113.21543276
_cell_angle_beta   113.21732071
_cell_angle_gamma   90.01220708
_symmetry_Int_Tables_number   1
_chemical_formula_structural   LiBiF4
_chemical_formula_sum   'Li2 Bi2 F8'
_cell_volume   162.57234530
_cell_formula_units_Z   2
loop_
 _symmetry_equiv_pos_site_id
 _symmetry_equiv_pos_as_xyz
  1  'x, y, z'
loop_
 _atom_site_type_symbol
 _atom_site_label
 _atom_site_symmetry_multiplicity
 _atom_site_fract_x
 _atom_site_fract_y
 _atom_site_fract_z
 _atom_site_occupancy
  Li  Li1  1  0.375003  0.125010  0.750024  1.0
  Li  Li2  1  0.624997  0.874990  0.249976  1.0
  Bi  Bi3  1  0.125004  0.374986  0.250001  1.0
  Bi  Bi4  1  0.874996  0.625014  0.749999  1.0
  F  F5  1  0.177725  0.366137  0.909988  1.0
  F  F6  1  0.544026  0.677829  0.410109  1.0
  F  F7  1  0.267671  0.956111  0.090044  1.0
  F  F8  1  0.133957  0.767690  0.590049  1.0
  F  F9  1  0.455974  0.322171  0.589891  1.0
  F  F10  1  0.822275  0.633863  0.090012  1.0
  F  F11  1  0.732329  0.043889  0.909956  1.0
  F  F12  1  0.866043  0.232310  0.409951  1.0
