# generated using pymatgen
data_Na2LiNF6
_symmetry_space_group_name_H-M   'P 1'
_cell_length_a   5.36605370
_cell_length_b   5.36605370
_cell_length_c   5.36605370
_cell_angle_alpha   60.00000000
_cell_angle_beta   60.00000000
_cell_angle_gamma   60.00000000
_symmetry_Int_Tables_number   1
_chemical_formula_structural   Na2LiNF6
_chemical_formula_sum   'Na2 Li1 N1 F6'
_cell_volume   109.25719478
_cell_formula_units_Z   1
loop_
 _symmetry_equiv_pos_site_id
 _symmetry_equiv_pos_as_xyz
  1  'x, y, z'
loop_
 _atom_site_type_symbol
 _atom_site_label
 _atom_site_symmetry_multiplicity
 _atom_site_fract_x
 _atom_site_fract_y
 _atom_site_fract_z
 _atom_site_occupancy
  Na  Na1  1  0.250000  0.250000  0.250000  1.0
  Na  Na2  1  0.750000  0.750000  0.750000  1.0
  Li  Li3  1  0.500000  0.500000  0.500000  1.0
  N  N4  1  0.000000  0.000000  0.000000  1.0
  F  F5  1  0.238884  0.761116  0.761116  1.0
  F  F6  1  0.238884  0.761116  0.238884  1.0
  F  F7  1  0.761116  0.238884  0.761116  1.0
  F  F8  1  0.761116  0.761116  0.238884  1.0
  F  F9  1  0.238884  0.238884  0.761116  1.0
  F  F10  1  0.761116  0.238884  0.238884  1.0
