# generated using pymatgen
data_La4PdO7
_symmetry_space_group_name_H-M   'P 1'
_cell_length_a   4.09289211
_cell_length_b   7.00387831
_cell_length_c   7.19344267
_cell_angle_alpha   83.15819406
_cell_angle_beta   73.47177078
_cell_angle_gamma   73.01103296
_symmetry_Int_Tables_number   1
_chemical_formula_structural   La4PdO7
_chemical_formula_sum   'La4 Pd1 O7'
_cell_volume   188.91478232
_cell_formula_units_Z   1
loop_
 _symmetry_equiv_pos_site_id
 _symmetry_equiv_pos_as_xyz
  1  'x, y, z'
loop_
 _atom_site_type_symbol
 _atom_site_label
 _atom_site_symmetry_multiplicity
 _atom_site_fract_x
 _atom_site_fract_y
 _atom_site_fract_z
 _atom_site_occupancy
  La  La1  1  0.584695  0.219227  0.611383  1.0
  La  La2  1  0.415305  0.780773  0.388617  1.0
  La  La3  1  0.749368  0.660996  0.840267  1.0
  La  La4  1  0.250632  0.339004  0.159733  1.0
  Pd  Pd5  1  0.000000  0.000000  0.000000  1.0
  O  O6  1  0.797190  0.852357  0.553263  1.0
  O  O7  1  0.202810  0.147643  0.446737  1.0
  O  O8  1  0.089678  0.710422  0.110221  1.0
  O  O9  1  0.910322  0.289578  0.889779  1.0
  O  O10  1  0.367858  0.571251  0.693032  1.0
  O  O11  1  0.500000  0.000000  0.000000  1.0
  O  O12  1  0.632142  0.428749  0.306968  1.0
