# generated using pymatgen
data_TiNbS4
_symmetry_space_group_name_H-M   'P 1'
_cell_length_a   3.38541265
_cell_length_b   6.78671269
_cell_length_c   7.00096836
_cell_angle_alpha   61.21741220
_cell_angle_beta   103.99172415
_cell_angle_gamma   119.92259200
_symmetry_Int_Tables_number   1
_chemical_formula_structural   TiNbS4
_chemical_formula_sum   'Ti1 Nb1 S4'
_cell_volume   122.18720759
_cell_formula_units_Z   1
loop_
 _symmetry_equiv_pos_site_id
 _symmetry_equiv_pos_as_xyz
  1  'x, y, z'
loop_
 _atom_site_type_symbol
 _atom_site_label
 _atom_site_symmetry_multiplicity
 _atom_site_fract_x
 _atom_site_fract_y
 _atom_site_fract_z
 _atom_site_occupancy
  Ti  Ti1  1  0.000000  0.000000  0.000000  1.0
  Nb  Nb2  1  0.000000  0.500000  0.000000  1.0
  S  S3  1  0.672305  0.795274  0.754061  1.0
  S  S4  1  0.338183  0.718202  0.239962  1.0
  S  S5  1  0.661817  0.281798  0.760038  1.0
  S  S6  1  0.327695  0.204726  0.245939  1.0
