# generated using pymatgen
data_Gd(PdO2)2
_symmetry_space_group_name_H-M   'P 1'
_cell_length_a   5.85704659
_cell_length_b   5.85704659
_cell_length_c   6.57081375
_cell_angle_alpha   116.46727233
_cell_angle_beta   116.46727230
_cell_angle_gamma   90.00000000
_symmetry_Int_Tables_number   1
_chemical_formula_structural   Gd(PdO2)2
_chemical_formula_sum   'Gd2 Pd4 O8'
_cell_volume   174.99951224
_cell_formula_units_Z   2
loop_
 _symmetry_equiv_pos_site_id
 _symmetry_equiv_pos_as_xyz
  1  'x, y, z'
loop_
 _atom_site_type_symbol
 _atom_site_label
 _atom_site_symmetry_multiplicity
 _atom_site_fract_x
 _atom_site_fract_y
 _atom_site_fract_z
 _atom_site_occupancy
  Gd  Gd1  1  0.875000  0.625000  0.750000  1.0
  Gd  Gd2  1  0.125000  0.375000  0.250000  1.0
  Pd  Pd3  1  0.500000  0.000000  0.000000  1.0
  Pd  Pd4  1  0.000000  0.000000  0.500000  1.0
  Pd  Pd5  1  0.500000  0.000000  0.500000  1.0
  Pd  Pd6  1  0.500000  0.500000  0.000000  1.0
  O  O7  1  0.832040  0.619310  0.352353  1.0
  O  O8  1  0.733043  0.332040  0.852353  1.0
  O  O9  1  0.119310  0.020313  0.852353  1.0
  O  O10  1  0.520313  0.233043  0.352353  1.0
  O  O11  1  0.167960  0.380690  0.647647  1.0
  O  O12  1  0.266957  0.667960  0.147647  1.0
  O  O13  1  0.479687  0.766957  0.647647  1.0
  O  O14  1  0.880690  0.979687  0.147647  1.0
