# generated using pymatgen
data_Ce(CoSi)2
_symmetry_space_group_name_H-M   'P 1'
_cell_length_a   3.93422541
_cell_length_b   3.93422541
_cell_length_c   5.64181485
_cell_angle_alpha   110.40578345
_cell_angle_beta   110.40578337
_cell_angle_gamma   89.99999997
_symmetry_Int_Tables_number   1
_chemical_formula_structural   Ce(CoSi)2
_chemical_formula_sum   'Ce1 Co2 Si2'
_cell_volume   75.97067444
_cell_formula_units_Z   1
loop_
 _symmetry_equiv_pos_site_id
 _symmetry_equiv_pos_as_xyz
  1  'x, y, z'
loop_
 _atom_site_type_symbol
 _atom_site_label
 _atom_site_symmetry_multiplicity
 _atom_site_fract_x
 _atom_site_fract_y
 _atom_site_fract_z
 _atom_site_occupancy
  Ce  Ce1  1  0.000000  0.000000  0.000000  1.0
  Co  Co2  1  0.250000  0.750000  0.500000  1.0
  Co  Co3  1  0.750000  0.250000  0.500000  1.0
  Si  Si4  1  0.630266  0.630266  0.260531  1.0
  Si  Si5  1  0.369734  0.369734  0.739469  1.0
