# generated using pymatgen
data_Rb4Br2O
_symmetry_space_group_name_H-M   'P 1'
_cell_length_a   5.53562839
_cell_length_b   5.53562838
_cell_length_c   9.60241234
_cell_angle_alpha   106.75270934
_cell_angle_beta   106.75270932
_cell_angle_gamma   90.00000000
_symmetry_Int_Tables_number   1
_chemical_formula_structural   Rb4Br2O
_chemical_formula_sum   'Rb4 Br2 O1'
_cell_volume   268.69148725
_cell_formula_units_Z   1
loop_
 _symmetry_equiv_pos_site_id
 _symmetry_equiv_pos_as_xyz
  1  'x, y, z'
loop_
 _atom_site_type_symbol
 _atom_site_label
 _atom_site_symmetry_multiplicity
 _atom_site_fract_x
 _atom_site_fract_y
 _atom_site_fract_z
 _atom_site_occupancy
  Rb  Rb1  1  0.845154  0.845154  0.690307  1.0
  Rb  Rb2  1  0.154846  0.154846  0.309693  1.0
  Rb  Rb3  1  0.000000  0.500000  0.000000  1.0
  Rb  Rb4  1  0.500000  0.000000  0.000000  1.0
  Br  Br5  1  0.643295  0.643295  0.286590  1.0
  Br  Br6  1  0.356705  0.356705  0.713410  1.0
  O  O7  1  0.000000  0.000000  0.000000  1.0
