# generated using pymatgen
data_CaTiO3
_symmetry_space_group_name_H-M   'P 1'
_cell_length_a   5.41716280
_cell_length_b   5.41716280
_cell_length_c   5.48091629
_cell_angle_alpha   119.61596007
_cell_angle_beta   119.61595998
_cell_angle_gamma   90.00000000
_symmetry_Int_Tables_number   1
_chemical_formula_structural   CaTiO3
_chemical_formula_sum   'Ca2 Ti2 O6'
_cell_volume   115.03951382
_cell_formula_units_Z   2
loop_
 _symmetry_equiv_pos_site_id
 _symmetry_equiv_pos_as_xyz
  1  'x, y, z'
loop_
 _atom_site_type_symbol
 _atom_site_label
 _atom_site_symmetry_multiplicity
 _atom_site_fract_x
 _atom_site_fract_y
 _atom_site_fract_z
 _atom_site_occupancy
  Ca  Ca1  1  0.250000  0.750000  0.500000  1.0
  Ca  Ca2  1  0.750000  0.250000  0.500000  1.0
  Ti  Ti3  1  0.000000  0.000000  0.000000  1.0
  Ti  Ti4  1  0.500000  0.500000  0.000000  1.0
  O  O5  1  0.808867  0.308867  0.000000  1.0
  O  O6  1  0.691133  0.808867  0.000000  1.0
  O  O7  1  0.308867  0.191133  0.000000  1.0
  O  O8  1  0.191133  0.691133  0.000000  1.0
  O  O9  1  0.250000  0.250000  0.500000  1.0
  O  O10  1  0.750000  0.750000  0.500000  1.0
