# generated using pymatgen
data_Eu(MnAs)2
_symmetry_space_group_name_H-M   'P 1'
_cell_length_a   4.01480450
_cell_length_b   4.01480450
_cell_length_c   7.12474248
_cell_angle_alpha   90.00000000
_cell_angle_beta   90.00000000
_cell_angle_gamma   119.99999999
_symmetry_Int_Tables_number   1
_chemical_formula_structural   Eu(MnAs)2
_chemical_formula_sum   'Eu1 Mn2 As2'
_cell_volume   99.45545484
_cell_formula_units_Z   1
loop_
 _symmetry_equiv_pos_site_id
 _symmetry_equiv_pos_as_xyz
  1  'x, y, z'
loop_
 _atom_site_type_symbol
 _atom_site_label
 _atom_site_symmetry_multiplicity
 _atom_site_fract_x
 _atom_site_fract_y
 _atom_site_fract_z
 _atom_site_occupancy
  Eu  Eu1  1  0.000000  0.000000  0.000000  1.0
  Mn  Mn2  1  0.666667  0.333333  0.385679  1.0
  Mn  Mn3  1  0.333333  0.666667  0.614321  1.0
  As  As4  1  0.666667  0.333333  0.724843  1.0
  As  As5  1  0.333333  0.666667  0.275157  1.0
