# generated using pymatgen
data_ErTaO4
_symmetry_space_group_name_H-M   'P 1'
_cell_length_a   5.12289119
_cell_length_b   5.30982070
_cell_length_c   5.49017982
_cell_angle_alpha   90.00000000
_cell_angle_beta   90.00000000
_cell_angle_gamma   96.37015653
_symmetry_Int_Tables_number   1
_chemical_formula_structural   ErTaO4
_chemical_formula_sum   'Er2 Ta2 O8'
_cell_volume   148.41980051
_cell_formula_units_Z   2
loop_
 _symmetry_equiv_pos_site_id
 _symmetry_equiv_pos_as_xyz
  1  'x, y, z'
loop_
 _atom_site_type_symbol
 _atom_site_label
 _atom_site_symmetry_multiplicity
 _atom_site_fract_x
 _atom_site_fract_y
 _atom_site_fract_z
 _atom_site_occupancy
  Er  Er1  1  0.000000  0.750000  0.767940  1.0
  Er  Er2  1  0.000000  0.250000  0.232060  1.0
  Ta  Ta3  1  0.500000  0.250000  0.694865  1.0
  Ta  Ta4  1  0.500000  0.750000  0.305135  1.0
  O  O5  1  0.732778  0.003547  0.565323  1.0
  O  O6  1  0.267222  0.496453  0.565323  1.0
  O  O7  1  0.267222  0.996453  0.434677  1.0
  O  O8  1  0.732778  0.503547  0.434677  1.0
  O  O9  1  0.248179  0.597706  0.083968  1.0
  O  O10  1  0.751821  0.902294  0.083968  1.0
  O  O11  1  0.751821  0.402294  0.916032  1.0
  O  O12  1  0.248179  0.097706  0.916032  1.0
