# generated using pymatgen
data_BaPb
_symmetry_space_group_name_H-M   'P 1'
_cell_length_a   4.90388274
_cell_length_b   5.39465645
_cell_length_c   7.00766017
_cell_angle_alpha   112.63823950
_cell_angle_beta   90.00000000
_cell_angle_gamma   90.00000000
_symmetry_Int_Tables_number   1
_chemical_formula_structural   BaPb
_chemical_formula_sum   'Ba2 Pb2'
_cell_volume   171.10265086
_cell_formula_units_Z   2
loop_
 _symmetry_equiv_pos_site_id
 _symmetry_equiv_pos_as_xyz
  1  'x, y, z'
loop_
 _atom_site_type_symbol
 _atom_site_label
 _atom_site_symmetry_multiplicity
 _atom_site_fract_x
 _atom_site_fract_y
 _atom_site_fract_z
 _atom_site_occupancy
  Ba  Ba1  1  0.750000  0.132866  0.265731  1.0
  Ba  Ba2  1  0.250000  0.867134  0.734269  1.0
  Pb  Pb3  1  0.750000  0.421909  0.843817  1.0
  Pb  Pb4  1  0.250000  0.578091  0.156183  1.0
