# generated using pymatgen
data_YCo
_symmetry_space_group_name_H-M   'P 1'
_cell_length_a   3.88535605
_cell_length_b   4.07033425
_cell_length_c   5.52805244
_cell_angle_alpha   111.60173115
_cell_angle_beta   90.00000000
_cell_angle_gamma   90.00000000
_symmetry_Int_Tables_number   1
_chemical_formula_structural   YCo
_chemical_formula_sum   'Y2 Co2'
_cell_volume   81.28425224
_cell_formula_units_Z   2
loop_
 _symmetry_equiv_pos_site_id
 _symmetry_equiv_pos_as_xyz
  1  'x, y, z'
loop_
 _atom_site_type_symbol
 _atom_site_label
 _atom_site_symmetry_multiplicity
 _atom_site_fract_x
 _atom_site_fract_y
 _atom_site_fract_z
 _atom_site_occupancy
  Y  Y1  1  0.250000  0.855791  0.711582  1.0
  Y  Y2  1  0.750000  0.144209  0.288418  1.0
  Co  Co3  1  0.250000  0.555895  0.111790  1.0
  Co  Co4  1  0.750000  0.444105  0.888210  1.0
