# generated using pymatgen
data_LiSmS2
_symmetry_space_group_name_H-M   'P 1'
_cell_length_a   7.86432554
_cell_length_b   10.45347767
_cell_length_c   6.88685232
_cell_angle_alpha   29.12501107
_cell_angle_beta   55.18234160
_cell_angle_gamma   41.20854428
_symmetry_Int_Tables_number   1
_chemical_formula_structural   LiSmS2
_chemical_formula_sum   'Li2 Sm2 S4'
_cell_volume   174.85354423
_cell_formula_units_Z   2
loop_
 _symmetry_equiv_pos_site_id
 _symmetry_equiv_pos_as_xyz
  1  'x, y, z'
loop_
 _atom_site_type_symbol
 _atom_site_label
 _atom_site_symmetry_multiplicity
 _atom_site_fract_x
 _atom_site_fract_y
 _atom_site_fract_z
 _atom_site_occupancy
  Li  Li1  1  0.500003  0.000000  0.000000  1.0
  Li  Li2  1  0.249997  0.500000  0.000000  1.0
  Sm  Sm3  1  0.000013  0.000000  0.000000  1.0
  Sm  Sm4  1  0.749987  0.500000  0.000000  1.0
  S  S5  1  0.247095  0.000028  0.505761  1.0
  S  S6  1  0.997087  0.500028  0.505761  1.0
  S  S7  1  0.752913  0.999972  0.494239  1.0
  S  S8  1  0.502905  0.499972  0.494239  1.0
