# generated using pymatgen
data_Zr2Ni2Sn
_symmetry_space_group_name_H-M   'P 1'
_cell_length_a   3.43447513
_cell_length_b   7.13211409
_cell_length_c   7.13211409
_cell_angle_alpha   90.00000000
_cell_angle_beta   90.00000000
_cell_angle_gamma   90.00000000
_symmetry_Int_Tables_number   1
_chemical_formula_structural   Zr2Ni2Sn
_chemical_formula_sum   'Zr4 Ni4 Sn2'
_cell_volume   174.70162294
_cell_formula_units_Z   2
loop_
 _symmetry_equiv_pos_site_id
 _symmetry_equiv_pos_as_xyz
  1  'x, y, z'
loop_
 _atom_site_type_symbol
 _atom_site_label
 _atom_site_symmetry_multiplicity
 _atom_site_fract_x
 _atom_site_fract_y
 _atom_site_fract_z
 _atom_site_occupancy
  Zr  Zr1  1  0.500000  0.669393  0.830607  1.0
  Zr  Zr2  1  0.500000  0.830607  0.330607  1.0
  Zr  Zr3  1  0.500000  0.169393  0.669393  1.0
  Zr  Zr4  1  0.500000  0.330607  0.169393  1.0
  Ni  Ni5  1  0.000000  0.624692  0.124692  1.0
  Ni  Ni6  1  0.000000  0.875308  0.624692  1.0
  Ni  Ni7  1  0.000000  0.375308  0.875308  1.0
  Ni  Ni8  1  0.000000  0.124692  0.375308  1.0
  Sn  Sn9  1  0.000000  0.500000  0.500000  1.0
  Sn  Sn10  1  0.000000  0.000000  0.000000  1.0
