# generated using pymatgen
data_GeAs2
_symmetry_space_group_name_H-M   'P 1'
_cell_length_a   3.77233028
_cell_length_b   10.66309710
_cell_length_c   15.53091096
_cell_angle_alpha   90.00000000
_cell_angle_beta   90.00000000
_cell_angle_gamma   90.00000000
_symmetry_Int_Tables_number   1
_chemical_formula_structural   GeAs2
_chemical_formula_sum   'Ge8 As16'
_cell_volume   624.72660790
_cell_formula_units_Z   8
loop_
 _symmetry_equiv_pos_site_id
 _symmetry_equiv_pos_as_xyz
  1  'x, y, z'
loop_
 _atom_site_type_symbol
 _atom_site_label
 _atom_site_symmetry_multiplicity
 _atom_site_fract_x
 _atom_site_fract_y
 _atom_site_fract_z
 _atom_site_occupancy
  Ge  Ge1  1  0.000000  0.576589  0.851288  1.0
  Ge  Ge2  1  0.000000  0.423411  0.148712  1.0
  Ge  Ge3  1  0.000000  0.076589  0.648712  1.0
  Ge  Ge4  1  0.000000  0.923411  0.351288  1.0
  Ge  Ge5  1  0.500000  0.791073  0.728301  1.0
  Ge  Ge6  1  0.500000  0.208927  0.271699  1.0
  Ge  Ge7  1  0.500000  0.291073  0.771699  1.0
  Ge  Ge8  1  0.500000  0.708927  0.228301  1.0
  As  As9  1  0.000000  0.645423  0.699460  1.0
  As  As10  1  0.000000  0.354577  0.300540  1.0
  As  As11  1  0.000000  0.145423  0.800540  1.0
  As  As12  1  0.000000  0.854577  0.199460  1.0
  As  As13  1  0.000000  0.763371  0.947985  1.0
  As  As14  1  0.000000  0.236629  0.052015  1.0
  As  As15  1  0.000000  0.263371  0.552015  1.0
  As  As16  1  0.000000  0.736629  0.447985  1.0
  As  As17  1  0.500000  0.884510  0.878894  1.0
  As  As18  1  0.500000  0.115490  0.121106  1.0
  As  As19  1  0.500000  0.384510  0.621106  1.0
  As  As20  1  0.500000  0.615490  0.378894  1.0
  As  As21  1  0.500000  0.940280  0.604407  1.0
  As  As22  1  0.500000  0.059720  0.395593  1.0
  As  As23  1  0.500000  0.440281  0.895593  1.0
  As  As24  1  0.500000  0.559720  0.104407  1.0
