# generated using pymatgen
data_CaGaPt
_symmetry_space_group_name_H-M   'P 1'
_cell_length_a   4.47055608
_cell_length_b   7.17434425
_cell_length_c   7.62183199
_cell_angle_alpha   90.00000000
_cell_angle_beta   90.00000000
_cell_angle_gamma   90.00000000
_symmetry_Int_Tables_number   1
_chemical_formula_structural   CaGaPt
_chemical_formula_sum   'Ca4 Ga4 Pt4'
_cell_volume   244.45736728
_cell_formula_units_Z   4
loop_
 _symmetry_equiv_pos_site_id
 _symmetry_equiv_pos_as_xyz
  1  'x, y, z'
loop_
 _atom_site_type_symbol
 _atom_site_label
 _atom_site_symmetry_multiplicity
 _atom_site_fract_x
 _atom_site_fract_y
 _atom_site_fract_z
 _atom_site_occupancy
  Ca  Ca1  1  0.750000  0.988810  0.311564  1.0
  Ca  Ca2  1  0.250000  0.011190  0.688436  1.0
  Ca  Ca3  1  0.750000  0.488810  0.188436  1.0
  Ca  Ca4  1  0.250000  0.511190  0.811564  1.0
  Ga  Ga5  1  0.750000  0.833631  0.922316  1.0
  Ga  Ga6  1  0.250000  0.166369  0.077684  1.0
  Ga  Ga7  1  0.750000  0.333631  0.577684  1.0
  Ga  Ga8  1  0.250000  0.666369  0.422316  1.0
  Pt  Pt9  1  0.750000  0.703895  0.601553  1.0
  Pt  Pt10  1  0.250000  0.296105  0.398447  1.0
  Pt  Pt11  1  0.750000  0.203895  0.898447  1.0
  Pt  Pt12  1  0.250000  0.796105  0.101553  1.0
