# generated using pymatgen
data_Cs2PbCl6
_symmetry_space_group_name_H-M   'P 1'
_cell_length_a   7.66724550
_cell_length_b   7.66724550
_cell_length_c   7.66724550
_cell_angle_alpha   60.00000002
_cell_angle_beta   60.00000000
_cell_angle_gamma   59.99999999
_symmetry_Int_Tables_number   1
_chemical_formula_structural   Cs2PbCl6
_chemical_formula_sum   'Cs2 Pb1 Cl6'
_cell_volume   318.71544509
_cell_formula_units_Z   1
loop_
 _symmetry_equiv_pos_site_id
 _symmetry_equiv_pos_as_xyz
  1  'x, y, z'
loop_
 _atom_site_type_symbol
 _atom_site_label
 _atom_site_symmetry_multiplicity
 _atom_site_fract_x
 _atom_site_fract_y
 _atom_site_fract_z
 _atom_site_occupancy
  Cs  Cs1  1  0.750000  0.750000  0.750000  1.0
  Cs  Cs2  1  0.250000  0.250000  0.250000  1.0
  Pb  Pb3  1  0.000000  0.000000  0.000000  1.0
  Cl  Cl4  1  0.237277  0.762723  0.762723  1.0
  Cl  Cl5  1  0.237277  0.762723  0.237277  1.0
  Cl  Cl6  1  0.762723  0.237277  0.762723  1.0
  Cl  Cl7  1  0.762723  0.237277  0.237277  1.0
  Cl  Cl8  1  0.762723  0.762723  0.237277  1.0
  Cl  Cl9  1  0.237277  0.237277  0.762723  1.0
