# generated using pymatgen
data_CoGe2
_symmetry_space_group_name_H-M   'P 1'
_cell_length_a   5.67498973
_cell_length_b   5.67677791
_cell_length_c   6.15815512
_cell_angle_alpha   90.00000000
_cell_angle_beta   117.43682343
_cell_angle_gamma   90.00000000
_symmetry_Int_Tables_number   1
_chemical_formula_structural   CoGe2
_chemical_formula_sum   'Co4 Ge8'
_cell_volume   176.07410139
_cell_formula_units_Z   4
loop_
 _symmetry_equiv_pos_site_id
 _symmetry_equiv_pos_as_xyz
  1  'x, y, z'
loop_
 _atom_site_type_symbol
 _atom_site_label
 _atom_site_symmetry_multiplicity
 _atom_site_fract_x
 _atom_site_fract_y
 _atom_site_fract_z
 _atom_site_occupancy
  Co  Co1  1  0.991804  0.000000  0.983607  1.0
  Co  Co2  1  0.491804  0.500000  0.983607  1.0
  Co  Co3  1  0.758196  0.000000  0.516393  1.0
  Co  Co4  1  0.258196  0.500000  0.516393  1.0
  Ge  Ge5  1  0.716133  0.658834  0.750000  1.0
  Ge  Ge6  1  0.033867  0.341166  0.750000  1.0
  Ge  Ge7  1  0.533867  0.158834  0.750000  1.0
  Ge  Ge8  1  0.216133  0.841166  0.750000  1.0
  Ge  Ge9  1  0.873978  0.750000  0.250000  1.0
  Ge  Ge10  1  0.376022  0.250000  0.250000  1.0
  Ge  Ge11  1  0.876022  0.250000  0.250000  1.0
  Ge  Ge12  1  0.373978  0.750000  0.250000  1.0
