# generated using pymatgen
data_FeP4
_symmetry_space_group_name_H-M   'P 1'
_cell_length_a   4.62006852
_cell_length_b   7.01798457
_cell_length_c   13.68801501
_cell_angle_alpha   90.00000000
_cell_angle_beta   90.00000000
_cell_angle_gamma   101.49098577
_symmetry_Int_Tables_number   1
_chemical_formula_structural   FeP4
_chemical_formula_sum   'Fe6 P24'
_cell_volume   434.91851922
_cell_formula_units_Z   6
loop_
 _symmetry_equiv_pos_site_id
 _symmetry_equiv_pos_as_xyz
  1  'x, y, z'
loop_
 _atom_site_type_symbol
 _atom_site_label
 _atom_site_symmetry_multiplicity
 _atom_site_fract_x
 _atom_site_fract_y
 _atom_site_fract_z
 _atom_site_occupancy
  Fe  Fe1  1  0.859140  0.118590  0.670044  1.0
  Fe  Fe2  1  0.140860  0.381410  0.170044  1.0
  Fe  Fe3  1  0.140860  0.881410  0.329956  1.0
  Fe  Fe4  1  0.859140  0.618590  0.829956  1.0
  Fe  Fe5  1  0.000000  0.500000  0.500000  1.0
  Fe  Fe6  1  0.000000  0.000000  0.000000  1.0
  P  P7  1  0.508210  0.031552  0.780437  1.0
  P  P8  1  0.491790  0.468448  0.280437  1.0
  P  P9  1  0.491790  0.968448  0.219563  1.0
  P  P10  1  0.508210  0.531552  0.719563  1.0
  P  P11  1  0.071551  0.365059  0.774852  1.0
  P  P12  1  0.928449  0.134941  0.274852  1.0
  P  P13  1  0.804810  0.249420  0.054121  1.0
  P  P14  1  0.195190  0.250580  0.554121  1.0
  P  P15  1  0.195190  0.750580  0.945879  1.0
  P  P16  1  0.804810  0.749420  0.445879  1.0
  P  P17  1  0.656134  0.853237  0.893039  1.0
  P  P18  1  0.343866  0.646763  0.393039  1.0
  P  P19  1  0.343866  0.146763  0.106961  1.0
  P  P20  1  0.656134  0.353237  0.606961  1.0
  P  P21  1  0.736568  0.805064  0.112712  1.0
  P  P22  1  0.263432  0.694936  0.612712  1.0
  P  P23  1  0.263432  0.194936  0.887288  1.0
  P  P24  1  0.736568  0.305064  0.387288  1.0
  P  P25  1  0.632149  0.929793  0.555981  1.0
  P  P26  1  0.367851  0.570207  0.055981  1.0
  P  P27  1  0.367851  0.070207  0.444019  1.0
  P  P28  1  0.632149  0.429793  0.944019  1.0
  P  P29  1  0.071551  0.865059  0.725148  1.0
  P  P30  1  0.928449  0.634941  0.225148  1.0
