# generated using pymatgen
data_TiFeSi2
_symmetry_space_group_name_H-M   'P 1'
_cell_length_a   7.57920296
_cell_length_b   8.57549817
_cell_length_c   9.53044831
_cell_angle_alpha   90.00000000
_cell_angle_beta   90.00000000
_cell_angle_gamma   90.00000000
_symmetry_Int_Tables_number   1
_chemical_formula_structural   TiFeSi2
_chemical_formula_sum   'Ti12 Fe12 Si24'
_cell_volume   619.43569192
_cell_formula_units_Z   12
loop_
 _symmetry_equiv_pos_site_id
 _symmetry_equiv_pos_as_xyz
  1  'x, y, z'
loop_
 _atom_site_type_symbol
 _atom_site_label
 _atom_site_symmetry_multiplicity
 _atom_site_fract_x
 _atom_site_fract_y
 _atom_site_fract_z
 _atom_site_occupancy
  Ti  Ti1  1  0.000000  0.167474  0.820286  1.0
  Ti  Ti2  1  0.238435  0.173945  0.548537  1.0
  Ti  Ti3  1  0.761565  0.326055  0.048537  1.0
  Ti  Ti4  1  0.761565  0.673945  0.951463  1.0
  Ti  Ti5  1  0.761565  0.173945  0.548537  1.0
  Ti  Ti6  1  0.761565  0.826055  0.451463  1.0
  Ti  Ti7  1  0.238435  0.673945  0.951463  1.0
  Ti  Ti8  1  0.238435  0.326055  0.048537  1.0
  Ti  Ti9  1  0.000000  0.332526  0.320286  1.0
  Ti  Ti10  1  0.000000  0.667474  0.679714  1.0
  Ti  Ti11  1  0.000000  0.832526  0.179714  1.0
  Ti  Ti12  1  0.238435  0.826055  0.451463  1.0
  Fe  Fe13  1  0.248746  0.089838  0.257347  1.0
  Fe  Fe14  1  0.248746  0.589838  0.242653  1.0
  Fe  Fe15  1  0.248746  0.410162  0.757347  1.0
  Fe  Fe16  1  0.751254  0.089838  0.257347  1.0
  Fe  Fe17  1  0.751254  0.910162  0.742653  1.0
  Fe  Fe18  1  0.751254  0.410162  0.757347  1.0
  Fe  Fe19  1  0.751254  0.589838  0.242653  1.0
  Fe  Fe20  1  0.248746  0.910162  0.742653  1.0
  Fe  Fe21  1  0.244065  0.000000  0.000000  1.0
  Fe  Fe22  1  0.755935  0.500000  0.500000  1.0
  Fe  Fe23  1  0.755935  0.000000  0.000000  1.0
  Fe  Fe24  1  0.244065  0.500000  0.500000  1.0
  Si  Si25  1  0.500000  0.039544  0.377959  1.0
  Si  Si26  1  0.000000  0.461371  0.880210  1.0
  Si  Si27  1  0.000000  0.538629  0.119790  1.0
  Si  Si28  1  0.000000  0.961371  0.619790  1.0
  Si  Si29  1  0.000000  0.038629  0.380210  1.0
  Si  Si30  1  0.000000  0.374206  0.604098  1.0
  Si  Si31  1  0.000000  0.625794  0.395902  1.0
  Si  Si32  1  0.000000  0.874206  0.895902  1.0
  Si  Si33  1  0.500000  0.378070  0.598396  1.0
  Si  Si34  1  0.500000  0.621930  0.401604  1.0
  Si  Si35  1  0.500000  0.878070  0.901604  1.0
  Si  Si36  1  0.500000  0.121930  0.098396  1.0
  Si  Si37  1  0.500000  0.460456  0.877959  1.0
  Si  Si38  1  0.500000  0.539544  0.122041  1.0
  Si  Si39  1  0.500000  0.960456  0.622041  1.0
  Si  Si40  1  0.000000  0.125794  0.104098  1.0
  Si  Si41  1  0.344602  0.338520  0.318675  1.0
  Si  Si42  1  0.655398  0.838520  0.181325  1.0
  Si  Si43  1  0.344602  0.838520  0.181325  1.0
  Si  Si44  1  0.655398  0.161480  0.818675  1.0
  Si  Si45  1  0.655398  0.661480  0.681325  1.0
  Si  Si46  1  0.655398  0.338520  0.318675  1.0
  Si  Si47  1  0.344602  0.161480  0.818675  1.0
  Si  Si48  1  0.344602  0.661480  0.681325  1.0
