# generated using pymatgen
data_ErAl2Ni
_symmetry_space_group_name_H-M   'P 1'
_cell_length_a   4.05377256
_cell_length_b   5.42113589
_cell_length_c   6.85229337
_cell_angle_alpha   90.00000000
_cell_angle_beta   90.00000000
_cell_angle_gamma   111.95547149
_symmetry_Int_Tables_number   1
_chemical_formula_structural   ErAl2Ni
_chemical_formula_sum   'Er2 Al4 Ni2'
_cell_volume   139.66503536
_cell_formula_units_Z   2
loop_
 _symmetry_equiv_pos_site_id
 _symmetry_equiv_pos_as_xyz
  1  'x, y, z'
loop_
 _atom_site_type_symbol
 _atom_site_label
 _atom_site_symmetry_multiplicity
 _atom_site_fract_x
 _atom_site_fract_y
 _atom_site_fract_z
 _atom_site_occupancy
  Er  Er1  1  0.062925  0.125851  0.750000  1.0
  Er  Er2  1  0.937075  0.874149  0.250000  1.0
  Al  Al3  1  0.345965  0.691931  0.946235  1.0
  Al  Al4  1  0.654035  0.308069  0.053765  1.0
  Al  Al5  1  0.654035  0.308069  0.446235  1.0
  Al  Al6  1  0.345965  0.691931  0.553765  1.0
  Ni  Ni7  1  0.785332  0.570663  0.750000  1.0
  Ni  Ni8  1  0.214668  0.429337  0.250000  1.0
