# generated using pymatgen
data_LiCN
_symmetry_space_group_name_H-M   'P 1'
_cell_length_a   3.73206429
_cell_length_b   6.59553437
_cell_length_c   8.81800590
_cell_angle_alpha   90.00000000
_cell_angle_beta   90.00000000
_cell_angle_gamma   90.00000000
_symmetry_Int_Tables_number   1
_chemical_formula_structural   LiCN
_chemical_formula_sum   'Li4 C4 N4'
_cell_volume   217.05484748
_cell_formula_units_Z   4
loop_
 _symmetry_equiv_pos_site_id
 _symmetry_equiv_pos_as_xyz
  1  'x, y, z'
loop_
 _atom_site_type_symbol
 _atom_site_label
 _atom_site_symmetry_multiplicity
 _atom_site_fract_x
 _atom_site_fract_y
 _atom_site_fract_z
 _atom_site_occupancy
  Li  Li1  1  0.250000  0.474796  0.375361  1.0
  Li  Li2  1  0.750000  0.525204  0.624639  1.0
  Li  Li3  1  0.750000  0.974796  0.124639  1.0
  Li  Li4  1  0.250000  0.025204  0.875361  1.0
  C  C5  1  0.250000  0.261811  0.192987  1.0
  C  C6  1  0.750000  0.738189  0.807013  1.0
  C  C7  1  0.750000  0.761811  0.307013  1.0
  C  C8  1  0.250000  0.238189  0.692987  1.0
  N  N9  1  0.250000  0.141678  0.093922  1.0
  N  N10  1  0.750000  0.858322  0.906078  1.0
  N  N11  1  0.750000  0.641678  0.406078  1.0
  N  N12  1  0.250000  0.358322  0.593922  1.0
