# generated using pymatgen
data_Cd(NO3)2
_symmetry_space_group_name_H-M   'P 1'
_cell_length_a   7.76198250
_cell_length_b   7.75399264
_cell_length_c   15.90128925
_cell_angle_alpha   90.00000000
_cell_angle_beta   90.00000000
_cell_angle_gamma   90.00000000
_symmetry_Int_Tables_number   1
_chemical_formula_structural   Cd(NO3)2
_chemical_formula_sum   'Cd8 N16 O48'
_cell_volume   957.04064257
_cell_formula_units_Z   8
loop_
 _symmetry_equiv_pos_site_id
 _symmetry_equiv_pos_as_xyz
  1  'x, y, z'
loop_
 _atom_site_type_symbol
 _atom_site_label
 _atom_site_symmetry_multiplicity
 _atom_site_fract_x
 _atom_site_fract_y
 _atom_site_fract_z
 _atom_site_occupancy
  Cd  Cd1  1  0.018132  0.716658  0.378351  1.0
  Cd  Cd2  1  0.981868  0.216658  0.621649  1.0
  Cd  Cd3  1  0.481868  0.216658  0.378351  1.0
  Cd  Cd4  1  0.518132  0.716658  0.621649  1.0
  Cd  Cd5  1  0.523117  0.736794  0.125147  1.0
  Cd  Cd6  1  0.476883  0.236794  0.874853  1.0
  Cd  Cd7  1  0.976883  0.236794  0.125147  1.0
  Cd  Cd8  1  0.023117  0.736794  0.874853  1.0
  N  N9  1  0.658975  0.370770  0.705987  1.0
  N  N10  1  0.326761  0.079592  0.047106  1.0
  N  N11  1  0.673239  0.579592  0.952894  1.0
  N  N12  1  0.173239  0.579592  0.047106  1.0
  N  N13  1  0.826761  0.079592  0.952894  1.0
  N  N14  1  0.637551  0.405402  0.212871  1.0
  N  N15  1  0.362449  0.905402  0.787129  1.0
  N  N16  1  0.862449  0.905402  0.212871  1.0
  N  N17  1  0.137551  0.405402  0.787129  1.0
  N  N18  1  0.341025  0.870770  0.294013  1.0
  N  N19  1  0.841025  0.870770  0.705987  1.0
  N  N20  1  0.158975  0.370770  0.294013  1.0
  N  N21  1  0.331228  0.064419  0.551972  1.0
  N  N22  1  0.668772  0.564419  0.448028  1.0
  N  N23  1  0.168772  0.564419  0.551972  1.0
  N  N24  1  0.831228  0.064419  0.448028  1.0
  O  O25  1  0.345105  0.772372  0.742083  1.0
  O  O26  1  0.325315  0.946283  0.364353  1.0
  O  O27  1  0.825315  0.946283  0.635647  1.0
  O  O28  1  0.174685  0.446283  0.364353  1.0
  O  O29  1  0.536448  0.410671  0.754716  1.0
  O  O30  1  0.463552  0.910671  0.245284  1.0
  O  O31  1  0.963552  0.910671  0.754716  1.0
  O  O32  1  0.036448  0.410671  0.245284  1.0
  O  O33  1  0.266806  0.255920  0.273153  1.0
  O  O34  1  0.733194  0.755920  0.726847  1.0
  O  O35  1  0.233194  0.755920  0.273153  1.0
  O  O36  1  0.766806  0.255920  0.726847  1.0
  O  O37  1  0.808232  0.189217  0.498304  1.0
  O  O38  1  0.191768  0.689217  0.501696  1.0
  O  O39  1  0.691768  0.689217  0.498304  1.0
  O  O40  1  0.308232  0.189217  0.501696  1.0
  O  O41  1  0.720042  0.032420  0.391918  1.0
  O  O42  1  0.279958  0.532420  0.608082  1.0
  O  O43  1  0.779958  0.532420  0.391918  1.0
  O  O44  1  0.220042  0.032420  0.608082  1.0
  O  O45  1  0.965756  0.972600  0.453940  1.0
  O  O46  1  0.034244  0.472600  0.546060  1.0
  O  O47  1  0.534244  0.472600  0.453940  1.0
  O  O48  1  0.465756  0.972600  0.546060  1.0
  O  O49  1  0.218656  0.056573  0.105815  1.0
  O  O50  1  0.957102  0.982966  0.959302  1.0
  O  O51  1  0.042898  0.482966  0.040698  1.0
  O  O52  1  0.542898  0.482966  0.959302  1.0
  O  O53  1  0.154895  0.272372  0.742083  1.0
  O  O54  1  0.845105  0.772372  0.257917  1.0
  O  O55  1  0.674685  0.446283  0.635647  1.0
  O  O56  1  0.654895  0.272372  0.257917  1.0
  O  O57  1  0.224977  0.421090  0.854307  1.0
  O  O58  1  0.775022  0.921090  0.145693  1.0
  O  O59  1  0.275023  0.921090  0.854307  1.0
  O  O60  1  0.724978  0.421090  0.145693  1.0
  O  O61  1  0.033557  0.524097  0.766552  1.0
  O  O62  1  0.966443  0.024097  0.233448  1.0
  O  O63  1  0.303525  0.200758  0.994657  1.0
  O  O64  1  0.533557  0.524097  0.233448  1.0
  O  O65  1  0.457102  0.982966  0.040698  1.0
  O  O66  1  0.718656  0.056573  0.894185  1.0
  O  O67  1  0.281344  0.556573  0.105815  1.0
  O  O68  1  0.781344  0.556573  0.894185  1.0
  O  O69  1  0.803525  0.200758  0.005343  1.0
  O  O70  1  0.196475  0.700758  0.994657  1.0
  O  O71  1  0.696475  0.700758  0.005343  1.0
  O  O72  1  0.466443  0.024097  0.766552  1.0
