# generated using pymatgen
data_Ca(BeGe)2
_symmetry_space_group_name_H-M   'P 1'
_cell_length_a   4.02963532
_cell_length_b   4.02963532
_cell_length_c   9.88658700
_cell_angle_alpha   90.00000000
_cell_angle_beta   90.00000000
_cell_angle_gamma   90.00000000
_symmetry_Int_Tables_number   1
_chemical_formula_structural   Ca(BeGe)2
_chemical_formula_sum   'Ca2 Be4 Ge4'
_cell_volume   160.53801227
_cell_formula_units_Z   2
loop_
 _symmetry_equiv_pos_site_id
 _symmetry_equiv_pos_as_xyz
  1  'x, y, z'
loop_
 _atom_site_type_symbol
 _atom_site_label
 _atom_site_symmetry_multiplicity
 _atom_site_fract_x
 _atom_site_fract_y
 _atom_site_fract_z
 _atom_site_occupancy
  Ca  Ca1  1  0.250000  0.250000  0.745683  1.0
  Ca  Ca2  1  0.750000  0.750000  0.254317  1.0
  Be  Be3  1  0.750000  0.750000  0.864663  1.0
  Be  Be4  1  0.250000  0.250000  0.135337  1.0
  Be  Be5  1  0.250000  0.750000  0.500000  1.0
  Be  Be6  1  0.750000  0.250000  0.500000  1.0
  Ge  Ge7  1  0.250000  0.750000  0.000000  1.0
  Ge  Ge8  1  0.750000  0.250000  0.000000  1.0
  Ge  Ge9  1  0.250000  0.250000  0.367657  1.0
  Ge  Ge10  1  0.750000  0.750000  0.632343  1.0
