# generated using pymatgen
data_K2MgF4
_symmetry_space_group_name_H-M   'P 1'
_cell_length_a   4.03520206
_cell_length_b   4.03520206
_cell_length_c   7.25949399
_cell_angle_alpha   106.13645188
_cell_angle_beta   106.13645183
_cell_angle_gamma   89.99999996
_symmetry_Int_Tables_number   1
_chemical_formula_structural   K2MgF4
_chemical_formula_sum   'K2 Mg1 F4'
_cell_volume   108.69196466
_cell_formula_units_Z   1
loop_
 _symmetry_equiv_pos_site_id
 _symmetry_equiv_pos_as_xyz
  1  'x, y, z'
loop_
 _atom_site_type_symbol
 _atom_site_label
 _atom_site_symmetry_multiplicity
 _atom_site_fract_x
 _atom_site_fract_y
 _atom_site_fract_z
 _atom_site_occupancy
  K  K1  1  0.648165  0.648165  0.296330  1.0
  K  K2  1  0.351835  0.351835  0.703670  1.0
  Mg  Mg3  1  0.000000  0.000000  0.000000  1.0
  F  F4  1  0.000000  0.500000  0.000000  1.0
  F  F5  1  0.500000  0.000000  0.000000  1.0
  F  F6  1  0.847887  0.847887  0.695775  1.0
  F  F7  1  0.152113  0.152113  0.304225  1.0
