# generated using pymatgen
data_Tl5Se2I
_symmetry_space_group_name_H-M   'P 1'
_cell_length_a   8.84607503
_cell_length_b   8.84607503
_cell_length_c   9.43577819
_cell_angle_alpha   117.95330026
_cell_angle_beta   117.95330024
_cell_angle_gamma   89.99999999
_symmetry_Int_Tables_number   1
_chemical_formula_structural   Tl5Se2I
_chemical_formula_sum   'Tl10 Se4 I2'
_cell_volume   552.81988831
_cell_formula_units_Z   2
loop_
 _symmetry_equiv_pos_site_id
 _symmetry_equiv_pos_as_xyz
  1  'x, y, z'
loop_
 _atom_site_type_symbol
 _atom_site_label
 _atom_site_symmetry_multiplicity
 _atom_site_fract_x
 _atom_site_fract_y
 _atom_site_fract_z
 _atom_site_occupancy
  Tl  Tl1  1  0.990976  0.779198  0.270175  1.0
  Tl  Tl2  1  0.779198  0.279198  0.270175  1.0
  Tl  Tl3  1  0.490976  0.990976  0.270175  1.0
  Tl  Tl4  1  0.220802  0.720802  0.729825  1.0
  Tl  Tl5  1  0.279198  0.490976  0.270175  1.0
  Tl  Tl6  1  0.009024  0.220802  0.729825  1.0
  Tl  Tl7  1  0.720802  0.509024  0.729825  1.0
  Tl  Tl8  1  0.509024  0.009024  0.729825  1.0
  Tl  Tl9  1  0.500000  0.500000  0.000000  1.0
  Tl  Tl10  1  0.000000  0.000000  0.000000  1.0
  Se  Se11  1  0.838044  0.338044  0.000000  1.0
  Se  Se12  1  0.661956  0.838044  0.000000  1.0
  Se  Se13  1  0.338044  0.161956  0.000000  1.0
  Se  Se14  1  0.161956  0.661956  0.000000  1.0
  I  I15  1  0.750000  0.750000  0.500000  1.0
  I  I16  1  0.250000  0.250000  0.500000  1.0
