# generated using pymatgen
data_AlSiTe3
_symmetry_space_group_name_H-M   'P 1'
_cell_length_a   6.91280258
_cell_length_b   6.91280258
_cell_length_c   7.68409134
_cell_angle_alpha   90.00000000
_cell_angle_beta   90.00000000
_cell_angle_gamma   120.00000003
_symmetry_Int_Tables_number   1
_chemical_formula_structural   AlSiTe3
_chemical_formula_sum   'Al2 Si2 Te6'
_cell_volume   318.00317687
_cell_formula_units_Z   2
loop_
 _symmetry_equiv_pos_site_id
 _symmetry_equiv_pos_as_xyz
  1  'x, y, z'
loop_
 _atom_site_type_symbol
 _atom_site_label
 _atom_site_symmetry_multiplicity
 _atom_site_fract_x
 _atom_site_fract_y
 _atom_site_fract_z
 _atom_site_occupancy
  Al  Al1  1  0.666667  0.333333  0.499088  1.0
  Al  Al2  1  0.333333  0.666667  0.500912  1.0
  Si  Si3  1  0.000000  0.000000  0.350431  1.0
  Si  Si4  1  0.000000  0.000000  0.649569  1.0
  Te  Te5  1  0.999365  0.644194  0.732143  1.0
  Te  Te6  1  0.355806  0.355171  0.732143  1.0
  Te  Te7  1  0.644829  0.000635  0.732143  1.0
  Te  Te8  1  0.644194  0.644829  0.267857  1.0
  Te  Te9  1  0.000635  0.355806  0.267857  1.0
  Te  Te10  1  0.355171  0.999365  0.267857  1.0
