# generated using pymatgen
data_Pr4RuI5
_symmetry_space_group_name_H-M   'P 1'
_cell_length_a   4.32541850
_cell_length_b   9.39585628
_cell_length_c   10.13596700
_cell_angle_alpha   103.50344287
_cell_angle_beta   102.31990459
_cell_angle_gamma   90.00000004
_symmetry_Int_Tables_number   1
_chemical_formula_structural   Pr4RuI5
_chemical_formula_sum   'Pr4 Ru1 I5'
_cell_volume   390.78574210
_cell_formula_units_Z   1
loop_
 _symmetry_equiv_pos_site_id
 _symmetry_equiv_pos_as_xyz
  1  'x, y, z'
loop_
 _atom_site_type_symbol
 _atom_site_label
 _atom_site_symmetry_multiplicity
 _atom_site_fract_x
 _atom_site_fract_y
 _atom_site_fract_z
 _atom_site_occupancy
  Pr  Pr1  1  0.359871  0.927151  0.719742  1.0
  Pr  Pr2  1  0.640129  0.072849  0.280258  1.0
  Pr  Pr3  1  0.000985  0.211249  0.001970  1.0
  Pr  Pr4  1  0.999015  0.788751  0.998030  1.0
  Ru  Ru5  1  0.500000  0.000000  0.000000  1.0
  I  I6  1  0.500000  0.500000  0.000000  1.0
  I  I7  1  0.172261  0.832133  0.344521  1.0
  I  I8  1  0.827739  0.167867  0.655479  1.0
  I  I9  1  0.830410  0.660521  0.660820  1.0
  I  I10  1  0.169590  0.339479  0.339180  1.0
