# generated using pymatgen
data_LiAg3O2
_symmetry_space_group_name_H-M   'P 1'
_cell_length_a   5.76851274
_cell_length_b   6.07321155
_cell_length_c   6.55206901
_cell_angle_alpha   117.61044225
_cell_angle_beta   116.11698925
_cell_angle_gamma   89.99999997
_symmetry_Int_Tables_number   1
_chemical_formula_structural   LiAg3O2
_chemical_formula_sum   'Li2 Ag6 O4'
_cell_volume   176.52695916
_cell_formula_units_Z   2
loop_
 _symmetry_equiv_pos_site_id
 _symmetry_equiv_pos_as_xyz
  1  'x, y, z'
loop_
 _atom_site_type_symbol
 _atom_site_label
 _atom_site_symmetry_multiplicity
 _atom_site_fract_x
 _atom_site_fract_y
 _atom_site_fract_z
 _atom_site_occupancy
  Li  Li1  1  0.250000  0.500000  0.000000  1.0
  Li  Li2  1  0.750000  0.500000  0.000000  1.0
  Ag  Ag3  1  0.000000  0.500000  0.500000  1.0
  Ag  Ag4  1  0.500000  0.000000  0.500000  1.0
  Ag  Ag5  1  0.500000  0.500000  0.500000  1.0
  Ag  Ag6  1  0.500000  0.000000  0.000000  1.0
  Ag  Ag7  1  0.000000  0.000000  0.000000  1.0
  Ag  Ag8  1  0.000000  0.000000  0.500000  1.0
  O  O9  1  0.903766  0.585609  0.807531  1.0
  O  O10  1  0.403766  0.221922  0.807531  1.0
  O  O11  1  0.096234  0.414391  0.192469  1.0
  O  O12  1  0.596234  0.778078  0.192469  1.0
