# generated using pymatgen
data_NaMnP
_symmetry_space_group_name_H-M   'P 1'
_cell_length_a   3.76119092
_cell_length_b   3.76119092
_cell_length_c   6.98973982
_cell_angle_alpha   90.00000000
_cell_angle_beta   90.00000000
_cell_angle_gamma   90.00000000
_symmetry_Int_Tables_number   1
_chemical_formula_structural   NaMnP
_chemical_formula_sum   'Na2 Mn2 P2'
_cell_volume   98.88075373
_cell_formula_units_Z   2
loop_
 _symmetry_equiv_pos_site_id
 _symmetry_equiv_pos_as_xyz
  1  'x, y, z'
loop_
 _atom_site_type_symbol
 _atom_site_label
 _atom_site_symmetry_multiplicity
 _atom_site_fract_x
 _atom_site_fract_y
 _atom_site_fract_z
 _atom_site_occupancy
  Na  Na1  1  0.250000  0.250000  0.641443  1.0
  Na  Na2  1  0.750000  0.750000  0.358557  1.0
  Mn  Mn3  1  0.250000  0.750000  0.000000  1.0
  Mn  Mn4  1  0.750000  0.250000  0.000000  1.0
  P  P5  1  0.250000  0.250000  0.190171  1.0
  P  P6  1  0.750000  0.750000  0.809829  1.0
