# generated using pymatgen
data_BeBr2
_symmetry_space_group_name_H-M   'P 1'
_cell_length_a   5.58694164
_cell_length_b   6.24985566
_cell_length_c   7.17775240
_cell_angle_alpha   115.80839441
_cell_angle_beta   112.90377337
_cell_angle_gamma   90.00000001
_symmetry_Int_Tables_number   1
_chemical_formula_structural   BeBr2
_chemical_formula_sum   'Be2 Br4'
_cell_volume   203.45738335
_cell_formula_units_Z   2
loop_
 _symmetry_equiv_pos_site_id
 _symmetry_equiv_pos_as_xyz
  1  'x, y, z'
loop_
 _atom_site_type_symbol
 _atom_site_label
 _atom_site_symmetry_multiplicity
 _atom_site_fract_x
 _atom_site_fract_y
 _atom_site_fract_z
 _atom_site_occupancy
  Be  Be1  1  0.250000  0.000000  0.000000  1.0
  Be  Be2  1  0.750000  0.000000  0.000000  1.0
  Br  Br3  1  0.103213  0.295555  0.206425  1.0
  Br  Br4  1  0.896787  0.704445  0.793575  1.0
  Br  Br5  1  0.396787  0.089129  0.793575  1.0
  Br  Br6  1  0.603213  0.910871  0.206425  1.0
