# generated using pymatgen
data_AsPd3Pb2
_symmetry_space_group_name_H-M   'P 1'
_cell_length_a   5.90102809
_cell_length_b   6.99474281
_cell_length_c   6.99474281
_cell_angle_alpha   120.42259544
_cell_angle_beta   90.00000000
_cell_angle_gamma   90.00000000
_symmetry_Int_Tables_number   1
_chemical_formula_structural   AsPd3Pb2
_chemical_formula_sum   'As2 Pd6 Pb4'
_cell_volume   248.96405010
_cell_formula_units_Z   2
loop_
 _symmetry_equiv_pos_site_id
 _symmetry_equiv_pos_as_xyz
  1  'x, y, z'
loop_
 _atom_site_type_symbol
 _atom_site_label
 _atom_site_symmetry_multiplicity
 _atom_site_fract_x
 _atom_site_fract_y
 _atom_site_fract_z
 _atom_site_occupancy
  As  As1  1  0.704750  0.706903  0.706903  1.0
  As  As2  1  0.204750  0.293097  0.293097  1.0
  Pd  Pd3  1  0.999958  0.664288  0.423853  1.0
  Pd  Pd4  1  0.499958  0.335712  0.576147  1.0
  Pd  Pd5  1  0.020646  0.946754  0.946754  1.0
  Pd  Pd6  1  0.520646  0.053246  0.053246  1.0
  Pd  Pd7  1  0.999958  0.423853  0.664288  1.0
  Pd  Pd8  1  0.499958  0.576147  0.335712  1.0
  Pb  Pb9  1  0.307344  0.015148  0.656842  1.0
  Pb  Pb10  1  0.807344  0.984852  0.343158  1.0
  Pb  Pb11  1  0.807344  0.343158  0.984852  1.0
  Pb  Pb12  1  0.307344  0.656842  0.015148  1.0
