# generated using pymatgen
data_Na3HfF7
_symmetry_space_group_name_H-M   'P 1'
_cell_length_a   5.48781102
_cell_length_b   5.48781102
_cell_length_c   6.26960448
_cell_angle_alpha   113.25163333
_cell_angle_beta   113.25163333
_cell_angle_gamma   90.85711076
_symmetry_Int_Tables_number   1
_chemical_formula_structural   Na3HfF7
_chemical_formula_sum   'Na3 Hf1 F7'
_cell_volume   156.09338460
_cell_formula_units_Z   1
loop_
 _symmetry_equiv_pos_site_id
 _symmetry_equiv_pos_as_xyz
  1  'x, y, z'
loop_
 _atom_site_type_symbol
 _atom_site_label
 _atom_site_symmetry_multiplicity
 _atom_site_fract_x
 _atom_site_fract_y
 _atom_site_fract_z
 _atom_site_occupancy
  Na  Na1  1  0.239066  0.773085  0.507825  1.0
  Na  Na2  1  0.486131  0.486131  0.956023  1.0
  Na  Na3  1  0.773085  0.239066  0.507825  1.0
  Hf  Hf4  1  0.952670  0.952670  0.971747  1.0
  F  F5  1  0.152707  0.152707  0.852326  1.0
  F  F6  1  0.101043  0.647866  0.767141  1.0
  F  F7  1  0.325275  0.975215  0.246568  1.0
  F  F8  1  0.647866  0.101043  0.767141  1.0
  F  F9  1  0.625544  0.625544  0.713987  1.0
  F  F10  1  0.975215  0.325275  0.246568  1.0
  F  F11  1  0.846399  0.846399  0.212851  1.0
