# generated using pymatgen
data_CeGeAu
_symmetry_space_group_name_H-M   'P 1'
_cell_length_a   4.74439251
_cell_length_b   4.74439251
_cell_length_c   4.74439251
_cell_angle_alpha   60.00000004
_cell_angle_beta   60.00000006
_cell_angle_gamma   59.99999998
_symmetry_Int_Tables_number   1
_chemical_formula_structural   CeGeAu
_chemical_formula_sum   'Ce1 Ge1 Au1'
_cell_volume   75.51388901
_cell_formula_units_Z   1
loop_
 _symmetry_equiv_pos_site_id
 _symmetry_equiv_pos_as_xyz
  1  'x, y, z'
loop_
 _atom_site_type_symbol
 _atom_site_label
 _atom_site_symmetry_multiplicity
 _atom_site_fract_x
 _atom_site_fract_y
 _atom_site_fract_z
 _atom_site_occupancy
  Ce  Ce1  1  0.500000  0.500000  0.500000  1.0
  Ge  Ge2  1  0.000000  0.000000  0.000000  1.0
  Au  Au3  1  0.250000  0.250000  0.250000  1.0
