# generated using pymatgen
data_Li3BO3
_symmetry_space_group_name_H-M   'P 1'
_cell_length_a   3.31508599
_cell_length_b   8.39555128
_cell_length_c   9.26466857
_cell_angle_alpha   90.00000000
_cell_angle_beta   90.00000000
_cell_angle_gamma   101.29622485
_symmetry_Int_Tables_number   1
_chemical_formula_structural   Li3BO3
_chemical_formula_sum   'Li12 B4 O12'
_cell_volume   252.85875903
_cell_formula_units_Z   4
loop_
 _symmetry_equiv_pos_site_id
 _symmetry_equiv_pos_as_xyz
  1  'x, y, z'
loop_
 _atom_site_type_symbol
 _atom_site_label
 _atom_site_symmetry_multiplicity
 _atom_site_fract_x
 _atom_site_fract_y
 _atom_site_fract_z
 _atom_site_occupancy
  Li  Li1  1  0.508135  0.981387  0.767735  1.0
  Li  Li2  1  0.491865  0.518613  0.267735  1.0
  Li  Li3  1  0.491865  0.018613  0.232265  1.0
  Li  Li4  1  0.508135  0.481387  0.732265  1.0
  Li  Li5  1  0.725199  0.887387  0.522827  1.0
  Li  Li6  1  0.274801  0.612613  0.022827  1.0
  Li  Li7  1  0.274801  0.112613  0.477173  1.0
  Li  Li8  1  0.725199  0.387387  0.977173  1.0
  Li  Li9  1  0.094137  0.633463  0.574004  1.0
  Li  Li10  1  0.905863  0.866537  0.074004  1.0
  Li  Li11  1  0.905863  0.366538  0.425996  1.0
  Li  Li12  1  0.094137  0.133463  0.925996  1.0
  B  B13  1  0.801777  0.745817  0.814282  1.0
  B  B14  1  0.198223  0.754183  0.314282  1.0
  B  B15  1  0.198223  0.254183  0.185718  1.0
  B  B16  1  0.801777  0.245817  0.685718  1.0
  O  O17  1  0.971603  0.900654  0.862359  1.0
  O  O18  1  0.028397  0.599346  0.362359  1.0
  O  O19  1  0.028397  0.099346  0.137641  1.0
  O  O20  1  0.971603  0.400654  0.637641  1.0
  O  O21  1  0.770590  0.612816  0.906833  1.0
  O  O22  1  0.229410  0.887184  0.406833  1.0
  O  O23  1  0.229410  0.387184  0.093167  1.0
  O  O24  1  0.770590  0.112816  0.593167  1.0
  O  O25  1  0.639807  0.721294  0.674407  1.0
  O  O26  1  0.360193  0.778706  0.174407  1.0
  O  O27  1  0.360193  0.278706  0.325593  1.0
  O  O28  1  0.639807  0.221294  0.825593  1.0
