# generated using pymatgen
data_In2Co
_symmetry_space_group_name_H-M   'P 1'
_cell_length_a   5.43062158
_cell_length_b   5.43062158
_cell_length_c   9.32171593
_cell_angle_alpha   97.84662043
_cell_angle_beta   97.84662043
_cell_angle_gamma   122.09457454
_symmetry_Int_Tables_number   1
_chemical_formula_structural   In2Co
_chemical_formula_sum   'In8 Co4'
_cell_volume   223.44489138
_cell_formula_units_Z   4
loop_
 _symmetry_equiv_pos_site_id
 _symmetry_equiv_pos_as_xyz
  1  'x, y, z'
loop_
 _atom_site_type_symbol
 _atom_site_label
 _atom_site_symmetry_multiplicity
 _atom_site_fract_x
 _atom_site_fract_y
 _atom_site_fract_z
 _atom_site_occupancy
  In  In1  1  0.966008  0.533992  0.750000  1.0
  In  In2  1  0.283992  0.216008  0.750000  1.0
  In  In3  1  0.033992  0.466008  0.250000  1.0
  In  In4  1  0.716008  0.783992  0.250000  1.0
  In  In5  1  0.714273  0.964273  0.928545  1.0
  In  In6  1  0.535727  0.785727  0.571455  1.0
  In  In7  1  0.285727  0.035727  0.071455  1.0
  In  In8  1  0.464273  0.214273  0.428545  1.0
  Co  Co9  1  0.253342  0.503342  0.006684  1.0
  Co  Co10  1  0.996658  0.246658  0.493316  1.0
  Co  Co11  1  0.746658  0.496658  0.993316  1.0
  Co  Co12  1  0.003342  0.753342  0.506684  1.0
