# generated using pymatgen
data_Ca(AlZn)2
_symmetry_space_group_name_H-M   'P 1'
_cell_length_a   4.14821400
_cell_length_b   4.14821400
_cell_length_c   6.38564911
_cell_angle_alpha   108.95391554
_cell_angle_beta   108.95391552
_cell_angle_gamma   89.99999995
_symmetry_Int_Tables_number   1
_chemical_formula_structural   Ca(AlZn)2
_chemical_formula_sum   'Ca1 Al2 Zn2'
_cell_volume   97.60361214
_cell_formula_units_Z   1
loop_
 _symmetry_equiv_pos_site_id
 _symmetry_equiv_pos_as_xyz
  1  'x, y, z'
loop_
 _atom_site_type_symbol
 _atom_site_label
 _atom_site_symmetry_multiplicity
 _atom_site_fract_x
 _atom_site_fract_y
 _atom_site_fract_z
 _atom_site_occupancy
  Ca  Ca1  1  0.000000  0.000000  0.000000  1.0
  Al  Al2  1  0.750000  0.250000  0.500000  1.0
  Al  Al3  1  0.250000  0.750000  0.500000  1.0
  Zn  Zn4  1  0.390611  0.390611  0.781223  1.0
  Zn  Zn5  1  0.609389  0.609389  0.218777  1.0
