# generated using pymatgen
data_ZrTi2O
_symmetry_space_group_name_H-M   'P 1'
_cell_length_a   4.65162640
_cell_length_b   4.65162641
_cell_length_c   6.71452886
_cell_angle_alpha   90.00000000
_cell_angle_beta   90.00000000
_cell_angle_gamma   119.94527789
_symmetry_Int_Tables_number   1
_chemical_formula_structural   ZrTi2O
_chemical_formula_sum   'Zr2 Ti4 O2'
_cell_volume   125.89110450
_cell_formula_units_Z   2
loop_
 _symmetry_equiv_pos_site_id
 _symmetry_equiv_pos_as_xyz
  1  'x, y, z'
loop_
 _atom_site_type_symbol
 _atom_site_label
 _atom_site_symmetry_multiplicity
 _atom_site_fract_x
 _atom_site_fract_y
 _atom_site_fract_z
 _atom_site_occupancy
  Zr  Zr1  1  0.000000  0.000000  0.500000  1.0
  Zr  Zr2  1  0.000000  0.000000  0.000000  1.0
  Ti  Ti3  1  0.666921  0.333079  0.716335  1.0
  Ti  Ti4  1  0.333079  0.666921  0.283665  1.0
  Ti  Ti5  1  0.333079  0.666921  0.716335  1.0
  Ti  Ti6  1  0.666921  0.333079  0.283665  1.0
  O  O7  1  0.332801  0.667199  0.000000  1.0
  O  O8  1  0.667199  0.332801  0.000000  1.0
