# generated using pymatgen
data_Ho2CdS4
_symmetry_space_group_name_H-M   'P 1'
_cell_length_a   7.77655450
_cell_length_b   10.28960634
_cell_length_c   6.73809665
_cell_angle_alpha   29.20431255
_cell_angle_beta   54.75829869
_cell_angle_gamma   40.90878547
_symmetry_Int_Tables_number   1
_chemical_formula_structural   Ho2CdS4
_chemical_formula_sum   'Ho2 Cd1 S4'
_cell_volume   166.41078717
_cell_formula_units_Z   1
loop_
 _symmetry_equiv_pos_site_id
 _symmetry_equiv_pos_as_xyz
  1  'x, y, z'
loop_
 _atom_site_type_symbol
 _atom_site_label
 _atom_site_symmetry_multiplicity
 _atom_site_fract_x
 _atom_site_fract_y
 _atom_site_fract_z
 _atom_site_occupancy
  Ho  Ho1  1  0.500007  0.000004  0.999995  1.0
  Ho  Ho2  1  0.750006  0.499969  0.000022  1.0
  Cd  Cd3  1  0.249995  0.500012  0.999972  1.0
  S  S4  1  0.993703  0.499922  0.512709  1.0
  S  S5  1  0.506283  0.500066  0.487335  1.0
  S  S6  1  0.253897  0.000050  0.492154  1.0
  S  S7  1  0.746109  0.999977  0.507813  1.0
