# generated using pymatgen
data_Yb2SiO5
_symmetry_space_group_name_H-M   'P 1'
_cell_length_a   8.53402902
_cell_length_b   11.20812936
_cell_length_c   8.53402902
_cell_angle_alpha   125.09839537
_cell_angle_beta   43.82917422
_cell_angle_gamma   125.09839537
_symmetry_Int_Tables_number   1
_chemical_formula_structural   Yb2SiO5
_chemical_formula_sum   'Yb8 Si4 O20'
_cell_volume   443.62853507
_cell_formula_units_Z   4
loop_
 _symmetry_equiv_pos_site_id
 _symmetry_equiv_pos_as_xyz
  1  'x, y, z'
loop_
 _atom_site_type_symbol
 _atom_site_label
 _atom_site_symmetry_multiplicity
 _atom_site_fract_x
 _atom_site_fract_y
 _atom_site_fract_z
 _atom_site_occupancy
  Yb  Yb1  1  0.758628  0.546968  0.108367  1.0
  Yb  Yb2  1  0.891632  0.953032  0.241371  1.0
  Yb  Yb3  1  0.241372  0.453032  0.891633  1.0
  Yb  Yb4  1  0.108367  0.046967  0.758628  1.0
  Yb  Yb5  1  0.793911  0.313032  0.548627  1.0
  Yb  Yb6  1  0.451373  0.186969  0.206089  1.0
  Yb  Yb7  1  0.206089  0.686968  0.451373  1.0
  Yb  Yb8  1  0.548627  0.813032  0.793912  1.0
  Si  Si9  1  0.254362  0.312618  0.085883  1.0
  Si  Si10  1  0.914117  0.187383  0.745638  1.0
  Si  Si11  1  0.745638  0.687381  0.914117  1.0
  Si  Si12  1  0.085883  0.812617  0.254362  1.0
  O  O13  1  0.535967  0.027519  0.427097  1.0
  O  O14  1  0.572902  0.472480  0.464033  1.0
  O  O15  1  0.464033  0.972481  0.572903  1.0
  O  O16  1  0.427097  0.527519  0.535966  1.0
  O  O17  1  0.127136  0.448137  0.237281  1.0
  O  O18  1  0.762719  0.051863  0.872864  1.0
  O  O19  1  0.872864  0.551862  0.762719  1.0
  O  O20  1  0.237281  0.948137  0.127136  1.0
  O  O21  1  0.409861  0.343919  0.158011  1.0
  O  O22  1  0.841988  0.156080  0.590139  1.0
  O  O23  1  0.590139  0.656080  0.841988  1.0
  O  O24  1  0.158012  0.843920  0.409861  1.0
  O  O25  1  0.027171  0.158936  0.143824  1.0
  O  O26  1  0.856177  0.341064  0.972829  1.0
  O  O27  1  0.972828  0.841063  0.856176  1.0
  O  O28  1  0.143823  0.658937  0.027171  1.0
  O  O29  1  0.403204  0.289352  0.804729  1.0
  O  O30  1  0.195270  0.210648  0.596795  1.0
  O  O31  1  0.596796  0.710648  0.195271  1.0
  O  O32  1  0.804729  0.789352  0.403204  1.0
