# generated using pymatgen
data_Na2CS3
_symmetry_space_group_name_H-M   'P 1'
_cell_length_a   6.00436651
_cell_length_b   6.00436652
_cell_length_c   8.62865119
_cell_angle_alpha   75.48971442
_cell_angle_beta   75.48971440
_cell_angle_gamma   64.35388129
_symmetry_Int_Tables_number   1
_chemical_formula_structural   Na2CS3
_chemical_formula_sum   'Na4 C2 S6'
_cell_volume   267.86841596
_cell_formula_units_Z   2
loop_
 _symmetry_equiv_pos_site_id
 _symmetry_equiv_pos_as_xyz
  1  'x, y, z'
loop_
 _atom_site_type_symbol
 _atom_site_label
 _atom_site_symmetry_multiplicity
 _atom_site_fract_x
 _atom_site_fract_y
 _atom_site_fract_z
 _atom_site_occupancy
  Na  Na1  1  0.431216  0.833080  0.391057  1.0
  Na  Na2  1  0.166920  0.568784  0.108943  1.0
  Na  Na3  1  0.833080  0.431216  0.891057  1.0
  Na  Na4  1  0.568784  0.166920  0.608943  1.0
  C  C5  1  0.911326  0.088674  0.250000  1.0
  C  C6  1  0.088674  0.911326  0.750000  1.0
  S  S7  1  0.641455  0.358545  0.250000  1.0
  S  S8  1  0.358545  0.641455  0.750000  1.0
  S  S9  1  0.917220  0.821660  0.385390  1.0
  S  S10  1  0.178340  0.082780  0.114610  1.0
  S  S11  1  0.082780  0.178340  0.614610  1.0
  S  S12  1  0.821660  0.917220  0.885390  1.0
