# generated using pymatgen
data_FeH4(ClO)2
_symmetry_space_group_name_H-M   'P 1'
_cell_length_a   3.72111733
_cell_length_b   5.71436732
_cell_length_c   5.71436683
_cell_angle_alpha   97.14895212
_cell_angle_beta   97.51304136
_cell_angle_gamma   97.51303320
_symmetry_Int_Tables_number   1
_chemical_formula_structural   FeH4(ClO)2
_chemical_formula_sum   'Fe1 H4 Cl2 O2'
_cell_volume   118.18712150
_cell_formula_units_Z   1
loop_
 _symmetry_equiv_pos_site_id
 _symmetry_equiv_pos_as_xyz
  1  'x, y, z'
loop_
 _atom_site_type_symbol
 _atom_site_label
 _atom_site_symmetry_multiplicity
 _atom_site_fract_x
 _atom_site_fract_y
 _atom_site_fract_z
 _atom_site_occupancy
  Fe  Fe1  1  0.000000  0.000098  0.999902  1.0
  H  H2  1  0.841434  0.223228  0.601250  1.0
  H  H3  1  0.158567  0.398749  0.776772  1.0
  H  H4  1  0.841433  0.601212  0.223275  1.0
  H  H5  1  0.158567  0.776725  0.398788  1.0
  Cl  Cl6  1  0.579461  0.236220  0.236263  1.0
  Cl  Cl7  1  0.420538  0.763736  0.763780  1.0
  O  O8  1  0.999999  0.757038  0.242961  1.0
  O  O9  1  0.000000  0.242991  0.757009  1.0
