# generated using pymatgen
data_ZrAl5Ni2
_symmetry_space_group_name_H-M   'P 1'
_cell_length_a   4.02103181
_cell_length_b   4.02103180
_cell_length_c   7.82588873
_cell_angle_alpha   104.88653993
_cell_angle_beta   104.88653991
_cell_angle_gamma   89.99999991
_symmetry_Int_Tables_number   1
_chemical_formula_structural   ZrAl5Ni2
_chemical_formula_sum   'Zr1 Al5 Ni2'
_cell_volume   117.88763692
_cell_formula_units_Z   1
loop_
 _symmetry_equiv_pos_site_id
 _symmetry_equiv_pos_as_xyz
  1  'x, y, z'
loop_
 _atom_site_type_symbol
 _atom_site_label
 _atom_site_symmetry_multiplicity
 _atom_site_fract_x
 _atom_site_fract_y
 _atom_site_fract_z
 _atom_site_occupancy
  Zr  Zr1  1  0.000000  0.000000  0.000000  1.0
  Al  Al2  1  0.500000  0.500000  0.000000  1.0
  Al  Al3  1  0.647576  0.147576  0.295153  1.0
  Al  Al4  1  0.147576  0.647576  0.295153  1.0
  Al  Al5  1  0.352424  0.852424  0.704847  1.0
  Al  Al6  1  0.852424  0.352424  0.704847  1.0
  Ni  Ni7  1  0.239597  0.239597  0.479194  1.0
  Ni  Ni8  1  0.760403  0.760403  0.520806  1.0
