# generated using pymatgen
data_Gd2O3
_symmetry_space_group_name_H-M   'P 1'
_cell_length_a   9.40700988
_cell_length_b   9.40700966
_cell_length_c   9.40701037
_cell_angle_alpha   109.47122001
_cell_angle_beta   109.47121953
_cell_angle_gamma   109.47122218
_symmetry_Int_Tables_number   1
_chemical_formula_structural   Gd2O3
_chemical_formula_sum   'Gd16 O24'
_cell_volume   640.81537499
_cell_formula_units_Z   8
loop_
 _symmetry_equiv_pos_site_id
 _symmetry_equiv_pos_as_xyz
  1  'x, y, z'
loop_
 _atom_site_type_symbol
 _atom_site_label
 _atom_site_symmetry_multiplicity
 _atom_site_fract_x
 _atom_site_fract_y
 _atom_site_fract_z
 _atom_site_occupancy
  Gd  Gd1  1  0.499351  0.499351  0.499351  1.0
  Gd  Gd2  1  0.000000  0.000649  0.500000  1.0
  Gd  Gd3  1  0.500000  0.000000  0.000649  1.0
  Gd  Gd4  1  0.000649  0.500000  0.000000  1.0
  Gd  Gd5  1  0.250000  0.218615  0.968615  1.0
  Gd  Gd6  1  0.281385  0.531385  0.750000  1.0
  Gd  Gd7  1  0.531385  0.750000  0.281385  1.0
  Gd  Gd8  1  0.218615  0.968615  0.250000  1.0
  Gd  Gd9  1  0.968615  0.250000  0.218615  1.0
  Gd  Gd10  1  0.750000  0.281385  0.531385  1.0
  Gd  Gd11  1  0.250000  0.718990  0.468990  1.0
  Gd  Gd12  1  0.781010  0.031010  0.750000  1.0
  Gd  Gd13  1  0.031010  0.750000  0.781010  1.0
  Gd  Gd14  1  0.718990  0.468990  0.250000  1.0
  Gd  Gd15  1  0.468990  0.250000  0.718990  1.0
  Gd  Gd16  1  0.750000  0.781010  0.031010  1.0
  O  O17  1  0.458478  0.470344  0.229536  1.0
  O  O18  1  0.228942  0.270464  0.740809  1.0
  O  O19  1  0.488133  0.759191  0.029656  1.0
  O  O20  1  0.271058  0.011867  0.041522  1.0
  O  O21  1  0.270464  0.740809  0.228942  1.0
  O  O22  1  0.029656  0.488133  0.759191  1.0
  O  O23  1  0.011867  0.041522  0.271058  1.0
  O  O24  1  0.229536  0.458478  0.470344  1.0
  O  O25  1  0.470344  0.229536  0.458478  1.0
  O  O26  1  0.740809  0.228942  0.270464  1.0
  O  O27  1  0.759191  0.029656  0.488133  1.0
  O  O28  1  0.041522  0.271058  0.011867  1.0
  O  O29  1  0.769701  0.541499  0.529447  1.0
  O  O30  1  0.240254  0.970553  0.512052  1.0
  O  O31  1  0.728202  0.987948  0.958501  1.0
  O  O32  1  0.259746  0.771798  0.730299  1.0
  O  O33  1  0.970553  0.512052  0.240254  1.0
  O  O34  1  0.958501  0.728202  0.987948  1.0
  O  O35  1  0.771798  0.730299  0.259746  1.0
  O  O36  1  0.529447  0.769701  0.541499  1.0
  O  O37  1  0.541499  0.529447  0.769701  1.0
  O  O38  1  0.512052  0.240254  0.970553  1.0
  O  O39  1  0.987948  0.958501  0.728202  1.0
  O  O40  1  0.730299  0.259746  0.771798  1.0
