# generated using pymatgen
data_UTl3
_symmetry_space_group_name_H-M   'P 1'
_cell_length_a   4.76345593
_cell_length_b   4.76345593
_cell_length_c   4.76345593
_cell_angle_alpha   90.00000000
_cell_angle_beta   90.00000000
_cell_angle_gamma   90.00000000
_symmetry_Int_Tables_number   1
_chemical_formula_structural   UTl3
_chemical_formula_sum   'U1 Tl3'
_cell_volume   108.08525583
_cell_formula_units_Z   1
loop_
 _symmetry_equiv_pos_site_id
 _symmetry_equiv_pos_as_xyz
  1  'x, y, z'
loop_
 _atom_site_type_symbol
 _atom_site_label
 _atom_site_symmetry_multiplicity
 _atom_site_fract_x
 _atom_site_fract_y
 _atom_site_fract_z
 _atom_site_occupancy
  U  U1  1  0.000000  0.000000  0.000000  1.0
  Tl  Tl2  1  0.000000  0.500000  0.500000  1.0
  Tl  Tl3  1  0.500000  0.500000  0.000000  1.0
  Tl  Tl4  1  0.500000  0.000000  0.500000  1.0
