# generated using pymatgen
data_NaHCO2
_symmetry_space_group_name_H-M   'P 1'
_cell_length_a   4.67552687
_cell_length_b   4.67552687
_cell_length_c   6.23459197
_cell_angle_alpha   107.33094254
_cell_angle_beta   107.33094251
_cell_angle_gamma   95.24816341
_symmetry_Int_Tables_number   1
_chemical_formula_structural   NaHCO2
_chemical_formula_sum   'Na2 H2 C2 O4'
_cell_volume   121.74450916
_cell_formula_units_Z   2
loop_
 _symmetry_equiv_pos_site_id
 _symmetry_equiv_pos_as_xyz
  1  'x, y, z'
loop_
 _atom_site_type_symbol
 _atom_site_label
 _atom_site_symmetry_multiplicity
 _atom_site_fract_x
 _atom_site_fract_y
 _atom_site_fract_z
 _atom_site_occupancy
  Na  Na1  1  0.862528  0.137472  0.250000  1.0
  Na  Na2  1  0.137472  0.862528  0.750000  1.0
  H  H3  1  0.437704  0.562296  0.250000  1.0
  H  H4  1  0.562296  0.437704  0.750000  1.0
  C  C5  1  0.276578  0.723422  0.250000  1.0
  C  C6  1  0.723422  0.276578  0.750000  1.0
  O  O7  1  0.329625  0.945504  0.180310  1.0
  O  O8  1  0.054496  0.670375  0.319690  1.0
  O  O9  1  0.945504  0.329625  0.680310  1.0
  O  O10  1  0.670375  0.054496  0.819690  1.0
