# generated using pymatgen
data_Pd3(PbS)2
_symmetry_space_group_name_H-M   'P 1'
_cell_length_a   5.86031559
_cell_length_b   5.86031558
_cell_length_c   5.86031559
_cell_angle_alpha   62.58821546
_cell_angle_beta   62.58821550
_cell_angle_gamma   62.58821544
_symmetry_Int_Tables_number   1
_chemical_formula_structural   Pd3(PbS)2
_chemical_formula_sum   'Pd3 Pb2 S2'
_cell_volume   150.51723229
_cell_formula_units_Z   1
loop_
 _symmetry_equiv_pos_site_id
 _symmetry_equiv_pos_as_xyz
  1  'x, y, z'
loop_
 _atom_site_type_symbol
 _atom_site_label
 _atom_site_symmetry_multiplicity
 _atom_site_fract_x
 _atom_site_fract_y
 _atom_site_fract_z
 _atom_site_occupancy
  Pd  Pd1  1  0.000000  0.000000  0.500000  1.0
  Pd  Pd2  1  0.500000  0.000000  0.000000  1.0
  Pd  Pd3  1  0.000000  0.500000  0.000000  1.0
  Pb  Pb4  1  0.500000  0.500000  0.500000  1.0
  Pb  Pb5  1  0.000000  0.000000  0.000000  1.0
  S  S6  1  0.721075  0.721075  0.721075  1.0
  S  S7  1  0.278925  0.278925  0.278925  1.0
