# generated using pymatgen
data_FeCuS2
_symmetry_space_group_name_H-M   'P 1'
_cell_length_a   5.26362509
_cell_length_b   5.26362509
_cell_length_c   6.32576382
_cell_angle_alpha   114.58524331
_cell_angle_beta   114.58524336
_cell_angle_gamma   89.99999994
_symmetry_Int_Tables_number   1
_chemical_formula_structural   FeCuS2
_chemical_formula_sum   'Fe2 Cu2 S4'
_cell_volume   141.71270844
_cell_formula_units_Z   2
loop_
 _symmetry_equiv_pos_site_id
 _symmetry_equiv_pos_as_xyz
  1  'x, y, z'
loop_
 _atom_site_type_symbol
 _atom_site_label
 _atom_site_symmetry_multiplicity
 _atom_site_fract_x
 _atom_site_fract_y
 _atom_site_fract_z
 _atom_site_occupancy
  Fe  Fe1  1  0.000000  0.000000  0.000000  1.0
  Fe  Fe2  1  0.250000  0.750000  0.500000  1.0
  Cu  Cu3  1  0.750000  0.250000  0.500000  1.0
  Cu  Cu4  1  0.500000  0.500000  0.000000  1.0
  S  S5  1  0.883055  0.875000  0.250000  1.0
  S  S6  1  0.625000  0.116945  0.750000  1.0
  S  S7  1  0.366945  0.375000  0.250000  1.0
  S  S8  1  0.125000  0.633055  0.750000  1.0
