# generated using pymatgen
data_U3(SiC)2
_symmetry_space_group_name_H-M   'P 1'
_cell_length_a   3.65755325
_cell_length_b   3.65755319
_cell_length_c   8.75740672
_cell_angle_alpha   102.05357374
_cell_angle_beta   102.05357134
_cell_angle_gamma   90.00000790
_symmetry_Int_Tables_number   1
_chemical_formula_structural   U3(SiC)2
_chemical_formula_sum   'U3 Si2 C2'
_cell_volume   111.92849296
_cell_formula_units_Z   1
loop_
 _symmetry_equiv_pos_site_id
 _symmetry_equiv_pos_as_xyz
  1  'x, y, z'
loop_
 _atom_site_type_symbol
 _atom_site_label
 _atom_site_symmetry_multiplicity
 _atom_site_fract_x
 _atom_site_fract_y
 _atom_site_fract_z
 _atom_site_occupancy
  U  U1  1  0.828172  0.828172  0.656344  1.0
  U  U2  1  0.171828  0.171828  0.343656  1.0
  U  U3  1  0.000000  0.000000  0.000000  1.0
  Si  Si4  1  0.583257  0.583257  0.166514  1.0
  Si  Si5  1  0.416743  0.416743  0.833486  1.0
  C  C6  1  0.695815  0.695815  0.391631  1.0
  C  C7  1  0.304185  0.304185  0.608369  1.0
