# generated using pymatgen
data_Tl2SnTe5
_symmetry_space_group_name_H-M   'P 1'
_cell_length_a   8.54814862
_cell_length_b   8.54797278
_cell_length_c   9.76269704
_cell_angle_alpha   115.95396228
_cell_angle_beta   115.96337159
_cell_angle_gamma   89.99999997
_symmetry_Int_Tables_number   1
_chemical_formula_structural   Tl2SnTe5
_chemical_formula_sum   'Tl4 Sn2 Te10'
_cell_volume   560.24295340
_cell_formula_units_Z   2
loop_
 _symmetry_equiv_pos_site_id
 _symmetry_equiv_pos_as_xyz
  1  'x, y, z'
loop_
 _atom_site_type_symbol
 _atom_site_label
 _atom_site_symmetry_multiplicity
 _atom_site_fract_x
 _atom_site_fract_y
 _atom_site_fract_z
 _atom_site_occupancy
  Tl  Tl1  1  0.000000  0.000000  0.000000  1.0
  Tl  Tl2  1  0.500000  0.500000  0.000000  1.0
  Tl  Tl3  1  0.249985  0.250000  0.500000  1.0
  Tl  Tl4  1  0.750015  0.750000  0.500000  1.0
  Sn  Sn5  1  0.249957  0.750000  0.500000  1.0
  Sn  Sn6  1  0.750043  0.250000  0.500000  1.0
  Te  Te7  1  0.500000  0.000000  0.000000  1.0
  Te  Te8  1  0.000000  0.500000  0.000000  1.0
  Te  Te9  1  0.318647  0.818712  0.269979  1.0
  Te  Te10  1  0.451333  0.318711  0.269979  1.0
  Te  Te11  1  0.818666  0.951392  0.269998  1.0
  Te  Te12  1  0.548667  0.681288  0.730021  1.0
  Te  Te13  1  0.181334  0.048608  0.730002  1.0
  Te  Te14  1  0.048668  0.548608  0.730002  1.0
  Te  Te15  1  0.681353  0.181288  0.730021  1.0
  Te  Te16  1  0.951332  0.451392  0.269998  1.0
