# generated using pymatgen
data_NaAlH4
_symmetry_space_group_name_H-M   'P 1'
_cell_length_a   4.98411714
_cell_length_b   4.98411714
_cell_length_c   6.57100453
_cell_angle_alpha   112.28728177
_cell_angle_beta   112.28728170
_cell_angle_gamma   90.00000000
_symmetry_Int_Tables_number   1
_chemical_formula_structural   NaAlH4
_chemical_formula_sum   'Na2 Al2 H8'
_cell_volume   137.76890683
_cell_formula_units_Z   2
loop_
 _symmetry_equiv_pos_site_id
 _symmetry_equiv_pos_as_xyz
  1  'x, y, z'
loop_
 _atom_site_type_symbol
 _atom_site_label
 _atom_site_symmetry_multiplicity
 _atom_site_fract_x
 _atom_site_fract_y
 _atom_site_fract_z
 _atom_site_occupancy
  Na  Na1  1  0.125000  0.375000  0.250000  1.0
  Na  Na2  1  0.875000  0.625000  0.750000  1.0
  Al  Al3  1  0.625000  0.875000  0.250000  1.0
  Al  Al4  1  0.375000  0.125000  0.750000  1.0
  H  H5  1  0.691802  0.348492  0.911899  1.0
  H  H6  1  0.563407  0.191802  0.411899  1.0
  H  H7  1  0.848492  0.720097  0.411899  1.0
  H  H8  1  0.220097  0.063407  0.911899  1.0
  H  H9  1  0.779903  0.936593  0.088101  1.0
  H  H10  1  0.151508  0.279903  0.588101  1.0
  H  H11  1  0.436593  0.808198  0.588101  1.0
  H  H12  1  0.308198  0.651508  0.088101  1.0
