# generated using pymatgen
data_Sn4Ir
_symmetry_space_group_name_H-M   'P 1'
_cell_length_a   6.41742867
_cell_length_b   6.41742867
_cell_length_c   12.46145825
_cell_angle_alpha   104.92124360
_cell_angle_beta   104.92124357
_cell_angle_gamma   90.00000001
_symmetry_Int_Tables_number   1
_chemical_formula_structural   Sn4Ir
_chemical_formula_sum   'Sn16 Ir4'
_cell_volume   477.96912854
_cell_formula_units_Z   4
loop_
 _symmetry_equiv_pos_site_id
 _symmetry_equiv_pos_as_xyz
  1  'x, y, z'
loop_
 _atom_site_type_symbol
 _atom_site_label
 _atom_site_symmetry_multiplicity
 _atom_site_fract_x
 _atom_site_fract_y
 _atom_site_fract_z
 _atom_site_occupancy
  Sn  Sn1  1  0.861767  0.111011  0.875982  1.0
  Sn  Sn2  1  0.235029  0.485785  0.624018  1.0
  Sn  Sn3  1  0.888989  0.138233  0.624018  1.0
  Sn  Sn4  1  0.985785  0.388989  0.124018  1.0
  Sn  Sn5  1  0.485785  0.235029  0.124018  1.0
  Sn  Sn6  1  0.388989  0.985785  0.624018  1.0
  Sn  Sn7  1  0.735029  0.638233  0.624018  1.0
  Sn  Sn8  1  0.361767  0.264971  0.875982  1.0
  Sn  Sn9  1  0.014215  0.611011  0.875982  1.0
  Sn  Sn10  1  0.111011  0.861767  0.375982  1.0
  Sn  Sn11  1  0.764971  0.514215  0.375982  1.0
  Sn  Sn12  1  0.138233  0.888989  0.124018  1.0
  Sn  Sn13  1  0.514215  0.764971  0.875982  1.0
  Sn  Sn14  1  0.611011  0.014215  0.375982  1.0
  Sn  Sn15  1  0.264971  0.361767  0.375982  1.0
  Sn  Sn16  1  0.638233  0.735029  0.124018  1.0
  Ir  Ir17  1  0.375000  0.625000  0.250000  1.0
  Ir  Ir18  1  0.125000  0.875000  0.750000  1.0
  Ir  Ir19  1  0.625000  0.375000  0.750000  1.0
  Ir  Ir20  1  0.875000  0.125000  0.250000  1.0
