# generated using pymatgen
data_CeAgAs2
_symmetry_space_group_name_H-M   'P 1'
_cell_length_a   4.09966640
_cell_length_b   4.10437533
_cell_length_c   10.19306375
_cell_angle_alpha   90.00000000
_cell_angle_beta   90.00000000
_cell_angle_gamma   90.00000000
_symmetry_Int_Tables_number   1
_chemical_formula_structural   CeAgAs2
_chemical_formula_sum   'Ce2 Ag2 As4'
_cell_volume   171.51429697
_cell_formula_units_Z   2
loop_
 _symmetry_equiv_pos_site_id
 _symmetry_equiv_pos_as_xyz
  1  'x, y, z'
loop_
 _atom_site_type_symbol
 _atom_site_label
 _atom_site_symmetry_multiplicity
 _atom_site_fract_x
 _atom_site_fract_y
 _atom_site_fract_z
 _atom_site_occupancy
  Ce  Ce1  1  0.750000  0.734489  0.778809  1.0
  Ce  Ce2  1  0.250000  0.234489  0.221191  1.0
  Ag  Ag3  1  0.750000  0.243574  0.499958  1.0
  Ag  Ag4  1  0.250000  0.743575  0.500042  1.0
  As  As5  1  0.750000  0.735366  0.311504  1.0
  As  As6  1  0.250000  0.235366  0.688496  1.0
  As  As7  1  0.750000  0.232371  0.999883  1.0
  As  As8  1  0.250000  0.732371  0.000117  1.0
