# generated using pymatgen
data_USb2Ru
_symmetry_space_group_name_H-M   'P 1'
_cell_length_a   4.38425896
_cell_length_b   4.38425896
_cell_length_c   9.17480428
_cell_angle_alpha   90.00000000
_cell_angle_beta   90.00000000
_cell_angle_gamma   90.00000000
_symmetry_Int_Tables_number   1
_chemical_formula_structural   USb2Ru
_chemical_formula_sum   'U2 Sb4 Ru2'
_cell_volume   176.35557974
_cell_formula_units_Z   2
loop_
 _symmetry_equiv_pos_site_id
 _symmetry_equiv_pos_as_xyz
  1  'x, y, z'
loop_
 _atom_site_type_symbol
 _atom_site_label
 _atom_site_symmetry_multiplicity
 _atom_site_fract_x
 _atom_site_fract_y
 _atom_site_fract_z
 _atom_site_occupancy
  U  U1  1  0.250000  0.250000  0.273789  1.0
  U  U2  1  0.750000  0.750000  0.726211  1.0
  Sb  Sb3  1  0.750000  0.250000  0.000000  1.0
  Sb  Sb4  1  0.250000  0.750000  0.000000  1.0
  Sb  Sb5  1  0.250000  0.250000  0.678891  1.0
  Sb  Sb6  1  0.750000  0.750000  0.321109  1.0
  Ru  Ru7  1  0.750000  0.250000  0.500000  1.0
  Ru  Ru8  1  0.250000  0.750000  0.500000  1.0
