# generated using pymatgen
data_TlClO4
_symmetry_space_group_name_H-M   'P 1'
_cell_length_a   5.50528484
_cell_length_b   5.50528484
_cell_length_c   5.50528484
_cell_angle_alpha   60.00000000
_cell_angle_beta   60.00000002
_cell_angle_gamma   60.00000003
_symmetry_Int_Tables_number   1
_chemical_formula_structural   TlClO4
_chemical_formula_sum   'Tl1 Cl1 O4'
_cell_volume   117.98434460
_cell_formula_units_Z   1
loop_
 _symmetry_equiv_pos_site_id
 _symmetry_equiv_pos_as_xyz
  1  'x, y, z'
loop_
 _atom_site_type_symbol
 _atom_site_label
 _atom_site_symmetry_multiplicity
 _atom_site_fract_x
 _atom_site_fract_y
 _atom_site_fract_z
 _atom_site_occupancy
  Tl  Tl1  1  0.500000  0.500000  0.500000  1.0
  Cl  Cl2  1  0.000000  0.000000  0.000000  1.0
  O  O3  1  0.108797  0.673609  0.108797  1.0
  O  O4  1  0.673609  0.108797  0.108797  1.0
  O  O5  1  0.108797  0.108797  0.108797  1.0
  O  O6  1  0.108797  0.108797  0.673609  1.0
