# generated using pymatgen
data_Cu(BiO2)2
_symmetry_space_group_name_H-M   'P 1'
_cell_length_a   6.04207199
_cell_length_b   8.49117366
_cell_length_c   8.49117366
_cell_angle_alpha   90.00000000
_cell_angle_beta   90.00000000
_cell_angle_gamma   90.00000000
_symmetry_Int_Tables_number   1
_chemical_formula_structural   Cu(BiO2)2
_chemical_formula_sum   'Cu4 Bi8 O16'
_cell_volume   435.63357249
_cell_formula_units_Z   4
loop_
 _symmetry_equiv_pos_site_id
 _symmetry_equiv_pos_as_xyz
  1  'x, y, z'
loop_
 _atom_site_type_symbol
 _atom_site_label
 _atom_site_symmetry_multiplicity
 _atom_site_fract_x
 _atom_site_fract_y
 _atom_site_fract_z
 _atom_site_occupancy
  Cu  Cu1  1  0.075437  0.250000  0.250000  1.0
  Cu  Cu2  1  0.424563  0.750000  0.750000  1.0
  Cu  Cu3  1  0.924563  0.750000  0.750000  1.0
  Cu  Cu4  1  0.575437  0.250000  0.250000  1.0
  Bi  Bi5  1  0.250000  0.420205  0.920205  1.0
  Bi  Bi6  1  0.250000  0.579795  0.420205  1.0
  Bi  Bi7  1  0.250000  0.920205  0.079795  1.0
  Bi  Bi8  1  0.250000  0.079795  0.579795  1.0
  Bi  Bi9  1  0.750000  0.579795  0.079795  1.0
  Bi  Bi10  1  0.750000  0.420205  0.579795  1.0
  Bi  Bi11  1  0.750000  0.079795  0.920205  1.0
  Bi  Bi12  1  0.750000  0.920205  0.420205  1.0
  O  O13  1  0.911376  0.542109  0.849380  1.0
  O  O14  1  0.911376  0.650620  0.542109  1.0
  O  O15  1  0.911376  0.849380  0.957891  1.0
  O  O16  1  0.911376  0.957891  0.650620  1.0
  O  O17  1  0.588624  0.042109  0.150620  1.0
  O  O18  1  0.588624  0.457891  0.349380  1.0
  O  O19  1  0.588624  0.349380  0.042109  1.0
  O  O20  1  0.588624  0.150620  0.457891  1.0
  O  O21  1  0.088624  0.457891  0.150620  1.0
  O  O22  1  0.088624  0.349380  0.457891  1.0
  O  O23  1  0.088624  0.150620  0.042109  1.0
  O  O24  1  0.088624  0.042109  0.349380  1.0
  O  O25  1  0.411376  0.957891  0.849380  1.0
  O  O26  1  0.411376  0.542109  0.650620  1.0
  O  O27  1  0.411376  0.650620  0.957891  1.0
  O  O28  1  0.411376  0.849380  0.542109  1.0
