# generated using pymatgen
data_Dy2Al3Si2
_symmetry_space_group_name_H-M   'P 1'
_cell_length_a   4.04043480
_cell_length_b   5.49456676
_cell_length_c   6.62936073
_cell_angle_alpha   100.25240352
_cell_angle_beta   90.00000000
_cell_angle_gamma   111.57232855
_symmetry_Int_Tables_number   1
_chemical_formula_structural   Dy2Al3Si2
_chemical_formula_sum   'Dy2 Al3 Si2'
_cell_volume   134.33562468
_cell_formula_units_Z   1
loop_
 _symmetry_equiv_pos_site_id
 _symmetry_equiv_pos_as_xyz
  1  'x, y, z'
loop_
 _atom_site_type_symbol
 _atom_site_label
 _atom_site_symmetry_multiplicity
 _atom_site_fract_x
 _atom_site_fract_y
 _atom_site_fract_z
 _atom_site_occupancy
  Dy  Dy1  1  0.380231  0.760461  0.677283  1.0
  Dy  Dy2  1  0.619769  0.239539  0.322717  1.0
  Al  Al3  1  0.694595  0.389191  0.866472  1.0
  Al  Al4  1  0.000000  0.000000  0.000000  1.0
  Al  Al5  1  0.305405  0.610809  0.133528  1.0
  Si  Si6  1  0.906995  0.813989  0.359789  1.0
  Si  Si7  1  0.093005  0.186011  0.640211  1.0
