# generated using pymatgen
data_Cs(FeAs)2
_symmetry_space_group_name_H-M   'P 1'
_cell_length_a   3.79830927
_cell_length_b   3.79830927
_cell_length_c   8.17436547
_cell_angle_alpha   103.43431858
_cell_angle_beta   103.43431855
_cell_angle_gamma   90.00000000
_symmetry_Int_Tables_number   1
_chemical_formula_structural   Cs(FeAs)2
_chemical_formula_sum   'Cs1 Fe2 As2'
_cell_volume   111.38535466
_cell_formula_units_Z   1
loop_
 _symmetry_equiv_pos_site_id
 _symmetry_equiv_pos_as_xyz
  1  'x, y, z'
loop_
 _atom_site_type_symbol
 _atom_site_label
 _atom_site_symmetry_multiplicity
 _atom_site_fract_x
 _atom_site_fract_y
 _atom_site_fract_z
 _atom_site_occupancy
  Cs  Cs1  1  0.000000  0.000000  0.000000  1.0
  Fe  Fe2  1  0.250000  0.750000  0.500000  1.0
  Fe  Fe3  1  0.750000  0.250000  0.500000  1.0
  As  As4  1  0.661250  0.661250  0.322500  1.0
  As  As5  1  0.338750  0.338750  0.677500  1.0
