# generated using pymatgen
data_ReBiO4
_symmetry_space_group_name_H-M   'P 1'
_cell_length_a   3.86324194
_cell_length_b   5.60024378
_cell_length_c   7.91247709
_cell_angle_alpha   90.00000000
_cell_angle_beta   104.13003647
_cell_angle_gamma   90.00000000
_symmetry_Int_Tables_number   1
_chemical_formula_structural   ReBiO4
_chemical_formula_sum   'Re2 Bi2 O8'
_cell_volume   166.00779560
_cell_formula_units_Z   2
loop_
 _symmetry_equiv_pos_site_id
 _symmetry_equiv_pos_as_xyz
  1  'x, y, z'
loop_
 _atom_site_type_symbol
 _atom_site_label
 _atom_site_symmetry_multiplicity
 _atom_site_fract_x
 _atom_site_fract_y
 _atom_site_fract_z
 _atom_site_occupancy
  Re  Re1  1  0.917699  0.250000  0.835397  1.0
  Re  Re2  1  0.082301  0.750000  0.164603  1.0
  Bi  Bi3  1  0.691311  0.250000  0.382623  1.0
  Bi  Bi4  1  0.308689  0.750000  0.617377  1.0
  O  O5  1  0.814280  0.017182  0.628559  1.0
  O  O6  1  0.185720  0.982818  0.371441  1.0
  O  O7  1  0.185720  0.517182  0.371441  1.0
  O  O8  1  0.814280  0.482818  0.628559  1.0
  O  O9  1  0.000000  0.000000  0.000000  1.0
  O  O10  1  0.000000  0.500000  0.000000  1.0
  O  O11  1  0.411360  0.250000  0.822721  1.0
  O  O12  1  0.588640  0.750000  0.177279  1.0
