# generated using pymatgen
data_Zn(GaS2)2
_symmetry_space_group_name_H-M   'P 1'
_cell_length_a   5.24049506
_cell_length_b   5.24049506
_cell_length_c   6.57671627
_cell_angle_alpha   113.45513138
_cell_angle_beta   113.45513138
_cell_angle_gamma   90.01480480
_symmetry_Int_Tables_number   1
_chemical_formula_structural   Zn(GaS2)2
_chemical_formula_sum   'Zn1 Ga2 S4'
_cell_volume   149.27376762
_cell_formula_units_Z   1
loop_
 _symmetry_equiv_pos_site_id
 _symmetry_equiv_pos_as_xyz
  1  'x, y, z'
loop_
 _atom_site_type_symbol
 _atom_site_label
 _atom_site_symmetry_multiplicity
 _atom_site_fract_x
 _atom_site_fract_y
 _atom_site_fract_z
 _atom_site_occupancy
  Zn  Zn1  1  0.999620  0.999620  0.999577  1.0
  Ga  Ga2  1  0.250328  0.749797  0.500022  1.0
  Ga  Ga3  1  0.749797  0.250328  0.500022  1.0
  S  S4  1  0.140478  0.614886  0.755567  1.0
  S  S5  1  0.384777  0.384777  0.244182  1.0
  S  S6  1  0.614886  0.140478  0.755567  1.0
  S  S7  1  0.860113  0.860113  0.245062  1.0
