# generated using pymatgen
data_Ba(P2Pd)2
_symmetry_space_group_name_H-M   'P 1'
_cell_length_a   5.72396024
_cell_length_b   5.72395964
_cell_length_c   5.72396004
_cell_angle_alpha   105.94161597
_cell_angle_beta   105.94161438
_cell_angle_gamma   116.78761341
_symmetry_Int_Tables_number   1
_chemical_formula_structural   Ba(P2Pd)2
_chemical_formula_sum   'Ba1 P4 Pd2'
_cell_volume   142.58002301
_cell_formula_units_Z   1
loop_
 _symmetry_equiv_pos_site_id
 _symmetry_equiv_pos_as_xyz
  1  'x, y, z'
loop_
 _atom_site_type_symbol
 _atom_site_label
 _atom_site_symmetry_multiplicity
 _atom_site_fract_x
 _atom_site_fract_y
 _atom_site_fract_z
 _atom_site_occupancy
  Ba  Ba1  1  0.000000  0.000000  0.000000  1.0
  P  P2  1  0.500000  0.273978  0.773978  1.0
  P  P3  1  0.273978  0.500000  0.773978  1.0
  P  P4  1  0.726022  0.500000  0.226022  1.0
  P  P5  1  0.500000  0.726022  0.226022  1.0
  Pd  Pd6  1  0.750000  0.250000  0.500000  1.0
  Pd  Pd7  1  0.250000  0.750000  0.500000  1.0
