# generated using pymatgen
data_BIrPd
_symmetry_space_group_name_H-M   'P 1'
_cell_length_a   5.55093157
_cell_length_b   5.55093156
_cell_length_c   6.12248769
_cell_angle_alpha   109.26977372
_cell_angle_beta   109.26977378
_cell_angle_gamma   105.78368771
_symmetry_Int_Tables_number   1
_chemical_formula_structural   BIrPd
_chemical_formula_sum   'B4 Ir4 Pd4'
_cell_volume   151.97165952
_cell_formula_units_Z   4
loop_
 _symmetry_equiv_pos_site_id
 _symmetry_equiv_pos_as_xyz
  1  'x, y, z'
loop_
 _atom_site_type_symbol
 _atom_site_label
 _atom_site_symmetry_multiplicity
 _atom_site_fract_x
 _atom_site_fract_y
 _atom_site_fract_z
 _atom_site_occupancy
  B  B1  1  0.053945  0.935306  0.530527  1.0
  B  B2  1  0.685306  0.303945  0.030527  1.0
  B  B3  1  0.404779  0.523418  0.469473  1.0
  B  B4  1  0.273418  0.654779  0.969473  1.0
  Ir  Ir5  1  0.102891  0.630444  0.235263  1.0
  Ir  Ir6  1  0.380444  0.352891  0.735263  1.0
  Ir  Ir7  1  0.617628  0.645181  0.264737  1.0
  Ir  Ir8  1  0.395181  0.867628  0.764737  1.0
  Pd  Pd9  1  0.939343  0.112423  0.230961  1.0
  Pd  Pd10  1  0.458382  0.131461  0.269039  1.0
  Pd  Pd11  1  0.862423  0.189343  0.730962  1.0
  Pd  Pd12  1  0.881461  0.708382  0.769038  1.0
