# generated using pymatgen
data_B(HO)3
_symmetry_space_group_name_H-M   'P 1'
_cell_length_a   6.88106491
_cell_length_b   6.96595044
_cell_length_c   6.97554270
_cell_angle_alpha   119.98792647
_cell_angle_beta   92.46155629
_cell_angle_gamma   100.48816110
_symmetry_Int_Tables_number   1
_chemical_formula_structural   B(HO)3
_chemical_formula_sum   'B4 H12 O12'
_cell_volume   281.21761116
_cell_formula_units_Z   4
loop_
 _symmetry_equiv_pos_site_id
 _symmetry_equiv_pos_as_xyz
  1  'x, y, z'
loop_
 _atom_site_type_symbol
 _atom_site_label
 _atom_site_symmetry_multiplicity
 _atom_site_fract_x
 _atom_site_fract_y
 _atom_site_fract_z
 _atom_site_occupancy
  B  B1  1  0.756788  0.689834  0.242396  1.0
  B  B2  1  0.243212  0.310166  0.757604  1.0
  B  B3  1  0.256449  0.646915  0.426184  1.0
  B  B4  1  0.743551  0.353085  0.573816  1.0
  H  H5  1  0.757709  0.731262  0.976171  1.0
  H  H6  1  0.255298  0.338202  0.384057  1.0
  H  H7  1  0.744702  0.661798  0.615943  1.0
  H  H8  1  0.248473  0.685920  0.157913  1.0
  H  H9  1  0.242291  0.268738  0.023829  1.0
  H  H10  1  0.753719  0.955821  0.549981  1.0
  H  H11  1  0.246281  0.044179  0.450019  1.0
  H  H12  1  0.744762  0.378449  0.199160  1.0
  H  H13  1  0.255238  0.621551  0.800840  1.0
  H  H14  1  0.748840  0.087554  0.267332  1.0
  H  H15  1  0.251160  0.912446  0.732668  1.0
  H  H16  1  0.751527  0.314080  0.842087  1.0
  O  O17  1  0.764122  0.818916  0.143313  1.0
  O  O18  1  0.753474  0.789289  0.469355  1.0
  O  O19  1  0.246526  0.210711  0.530645  1.0
  O  O20  1  0.751361  0.460627  0.114479  1.0
  O  O21  1  0.248639  0.539373  0.885521  1.0
  O  O22  1  0.740487  0.251529  0.345979  1.0
  O  O23  1  0.259513  0.748471  0.654021  1.0
  O  O24  1  0.749732  0.227561  0.675572  1.0
  O  O25  1  0.250268  0.772439  0.324428  1.0
  O  O26  1  0.741944  0.580313  0.700974  1.0
  O  O27  1  0.258056  0.419687  0.299026  1.0
  O  O28  1  0.235878  0.181084  0.856687  1.0
