# generated using pymatgen
data_CeAl
_symmetry_space_group_name_H-M   'P 1'
_cell_length_a   5.37226805
_cell_length_b   5.99084343
_cell_length_c   5.99084343
_cell_angle_alpha   102.72998772
_cell_angle_beta   90.00000000
_cell_angle_gamma   90.00000000
_symmetry_Int_Tables_number   1
_chemical_formula_structural   CeAl
_chemical_formula_sum   'Ce4 Al4'
_cell_volume   188.07236151
_cell_formula_units_Z   4
loop_
 _symmetry_equiv_pos_site_id
 _symmetry_equiv_pos_as_xyz
  1  'x, y, z'
loop_
 _atom_site_type_symbol
 _atom_site_label
 _atom_site_symmetry_multiplicity
 _atom_site_fract_x
 _atom_site_fract_y
 _atom_site_fract_z
 _atom_site_occupancy
  Ce  Ce1  1  0.250000  0.368626  0.986310  1.0
  Ce  Ce2  1  0.750000  0.631374  0.013690  1.0
  Ce  Ce3  1  0.250000  0.986310  0.368626  1.0
  Ce  Ce4  1  0.750000  0.013690  0.631374  1.0
  Al  Al5  1  0.250000  0.826410  0.826410  1.0
  Al  Al6  1  0.750000  0.173590  0.173590  1.0
  Al  Al7  1  0.000000  0.500000  0.500000  1.0
  Al  Al8  1  0.500000  0.500000  0.500000  1.0
