# generated using pymatgen
data_CsSnI3
_symmetry_space_group_name_H-M   'P 1'
_cell_length_a   4.83229019
_cell_length_b   10.76502638
_cell_length_c   18.14727651
_cell_angle_alpha   90.00000000
_cell_angle_beta   90.00000000
_cell_angle_gamma   90.00000000
_symmetry_Int_Tables_number   1
_chemical_formula_structural   CsSnI3
_chemical_formula_sum   'Cs4 Sn4 I12'
_cell_volume   944.01644917
_cell_formula_units_Z   4
loop_
 _symmetry_equiv_pos_site_id
 _symmetry_equiv_pos_as_xyz
  1  'x, y, z'
loop_
 _atom_site_type_symbol
 _atom_site_label
 _atom_site_symmetry_multiplicity
 _atom_site_fract_x
 _atom_site_fract_y
 _atom_site_fract_z
 _atom_site_occupancy
  Cs  Cs1  1  0.250000  0.083477  0.670182  1.0
  Cs  Cs2  1  0.750000  0.916523  0.329818  1.0
  Cs  Cs3  1  0.250000  0.583477  0.829818  1.0
  Cs  Cs4  1  0.750000  0.416523  0.170182  1.0
  Sn  Sn5  1  0.250000  0.341860  0.438978  1.0
  Sn  Sn6  1  0.750000  0.658140  0.561022  1.0
  Sn  Sn7  1  0.250000  0.841860  0.061022  1.0
  Sn  Sn8  1  0.750000  0.158140  0.938978  1.0
  I  I9  1  0.750000  0.026100  0.111907  1.0
  I  I10  1  0.250000  0.973900  0.888093  1.0
  I  I11  1  0.750000  0.526100  0.388093  1.0
  I  I12  1  0.250000  0.473900  0.611907  1.0
  I  I13  1  0.750000  0.293174  0.791874  1.0
  I  I14  1  0.250000  0.706826  0.208126  1.0
  I  I15  1  0.750000  0.793174  0.708126  1.0
  I  I16  1  0.250000  0.206826  0.291874  1.0
  I  I17  1  0.750000  0.168496  0.498874  1.0
  I  I18  1  0.250000  0.831504  0.501126  1.0
  I  I19  1  0.750000  0.668496  0.001126  1.0
  I  I20  1  0.250000  0.331504  0.998874  1.0
