# generated using pymatgen
data_Al2HgTe4
_symmetry_space_group_name_H-M   'P 1'
_cell_length_a   6.28536319
_cell_length_b   6.28536320
_cell_length_c   7.45547066
_cell_angle_alpha   114.93102598
_cell_angle_beta   114.93102603
_cell_angle_gamma   89.99999997
_symmetry_Int_Tables_number   1
_chemical_formula_structural   Al2HgTe4
_chemical_formula_sum   'Al2 Hg1 Te4'
_cell_volume   236.47820219
_cell_formula_units_Z   1
loop_
 _symmetry_equiv_pos_site_id
 _symmetry_equiv_pos_as_xyz
  1  'x, y, z'
loop_
 _atom_site_type_symbol
 _atom_site_label
 _atom_site_symmetry_multiplicity
 _atom_site_fract_x
 _atom_site_fract_y
 _atom_site_fract_z
 _atom_site_occupancy
  Al  Al1  1  0.250000  0.750000  0.500000  1.0
  Al  Al2  1  0.500000  0.500000  0.000000  1.0
  Hg  Hg3  1  0.000000  0.000000  0.000000  1.0
  Te  Te4  1  0.863775  0.881071  0.276494  1.0
  Te  Te5  1  0.412720  0.395424  0.276494  1.0
  Te  Te6  1  0.118929  0.587280  0.723506  1.0
  Te  Te7  1  0.604576  0.136225  0.723506  1.0
