# generated using pymatgen
data_Co3Se4
_symmetry_space_group_name_H-M   'P 1'
_cell_length_a   6.96725592
_cell_length_b   6.96725591
_cell_length_c   6.96725591
_cell_angle_alpha   59.99999997
_cell_angle_beta   59.99999999
_cell_angle_gamma   59.99999997
_symmetry_Int_Tables_number   1
_chemical_formula_structural   Co3Se4
_chemical_formula_sum   'Co6 Se8'
_cell_volume   239.14994782
_cell_formula_units_Z   2
loop_
 _symmetry_equiv_pos_site_id
 _symmetry_equiv_pos_as_xyz
  1  'x, y, z'
loop_
 _atom_site_type_symbol
 _atom_site_label
 _atom_site_symmetry_multiplicity
 _atom_site_fract_x
 _atom_site_fract_y
 _atom_site_fract_z
 _atom_site_occupancy
  Co  Co1  1  0.125000  0.125000  0.125000  1.0
  Co  Co2  1  0.875000  0.875000  0.875000  1.0
  Co  Co3  1  0.500000  0.500000  0.500000  1.0
  Co  Co4  1  0.500000  0.500000  0.000000  1.0
  Co  Co5  1  0.000000  0.500000  0.500000  1.0
  Co  Co6  1  0.500000  0.000000  0.500000  1.0
  Se  Se7  1  0.257492  0.257492  0.257492  1.0
  Se  Se8  1  0.742508  0.742508  0.272476  1.0
  Se  Se9  1  0.272476  0.742508  0.742508  1.0
  Se  Se10  1  0.742508  0.272476  0.742508  1.0
  Se  Se11  1  0.727524  0.257492  0.257492  1.0
  Se  Se12  1  0.257492  0.727524  0.257492  1.0
  Se  Se13  1  0.257492  0.257492  0.727524  1.0
  Se  Se14  1  0.742508  0.742508  0.742508  1.0
