# generated using pymatgen
data_NaTiS2
_symmetry_space_group_name_H-M   'P 1'
_cell_length_a   7.00062742
_cell_length_b   7.00062742
_cell_length_c   7.00062742
_cell_angle_alpha   29.59825146
_cell_angle_beta   29.59825140
_cell_angle_gamma   29.59825145
_symmetry_Int_Tables_number   1
_chemical_formula_structural   NaTiS2
_chemical_formula_sum   'Na1 Ti1 S2'
_cell_volume   74.09445645
_cell_formula_units_Z   1
loop_
 _symmetry_equiv_pos_site_id
 _symmetry_equiv_pos_as_xyz
  1  'x, y, z'
loop_
 _atom_site_type_symbol
 _atom_site_label
 _atom_site_symmetry_multiplicity
 _atom_site_fract_x
 _atom_site_fract_y
 _atom_site_fract_z
 _atom_site_occupancy
  Na  Na1  1  0.500000  0.500000  0.500000  1.0
  Ti  Ti2  1  0.000000  0.000000  0.000000  1.0
  S  S3  1  0.736981  0.736981  0.736981  1.0
  S  S4  1  0.263019  0.263019  0.263019  1.0
