# generated using pymatgen
data_K2UF6
_symmetry_space_group_name_H-M   'P 1'
_cell_length_a   6.66425757
_cell_length_b   6.66425756
_cell_length_c   3.74582249
_cell_angle_alpha   90.00000000
_cell_angle_beta   90.00000000
_cell_angle_gamma   119.99999998
_symmetry_Int_Tables_number   1
_chemical_formula_structural   K2UF6
_chemical_formula_sum   'K2 U1 F6'
_cell_volume   144.07259277
_cell_formula_units_Z   1
loop_
 _symmetry_equiv_pos_site_id
 _symmetry_equiv_pos_as_xyz
  1  'x, y, z'
loop_
 _atom_site_type_symbol
 _atom_site_label
 _atom_site_symmetry_multiplicity
 _atom_site_fract_x
 _atom_site_fract_y
 _atom_site_fract_z
 _atom_site_occupancy
  K  K1  1  0.333333  0.666667  0.500773  1.0
  K  K2  1  0.666667  0.333333  0.499227  1.0
  U  U3  1  0.000000  0.000000  0.000000  1.0
  F  F4  1  0.774341  0.774341  0.500000  1.0
  F  F5  1  0.000000  0.225659  0.500000  1.0
  F  F6  1  0.225659  0.000000  0.500000  1.0
  F  F7  1  0.659045  0.000000  0.000000  1.0
  F  F8  1  0.000000  0.659045  0.000000  1.0
  F  F9  1  0.340955  0.340955  0.000000  1.0
