# generated using pymatgen
data_LiSmSe2
_symmetry_space_group_name_H-M   'P 1'
_cell_length_a   8.22154645
_cell_length_b   10.89758761
_cell_length_c   7.15036992
_cell_angle_alpha   29.13899960
_cell_angle_beta   54.86589375
_cell_angle_gamma   40.95992783
_symmetry_Int_Tables_number   1
_chemical_formula_structural   LiSmSe2
_chemical_formula_sum   'Li2 Sm2 Se4'
_cell_volume   197.26428537
_cell_formula_units_Z   2
loop_
 _symmetry_equiv_pos_site_id
 _symmetry_equiv_pos_as_xyz
  1  'x, y, z'
loop_
 _atom_site_type_symbol
 _atom_site_label
 _atom_site_symmetry_multiplicity
 _atom_site_fract_x
 _atom_site_fract_y
 _atom_site_fract_z
 _atom_site_occupancy
  Li  Li1  1  0.500001  0.000005  0.999986  1.0
  Li  Li2  1  0.249997  0.499994  0.000016  1.0
  Sm  Sm3  1  0.999966  0.000018  0.000028  1.0
  Sm  Sm4  1  0.750035  0.499983  0.999971  1.0
  Se  Se5  1  0.249727  0.999993  0.500587  1.0
  Se  Se6  1  0.750257  0.999999  0.499453  1.0
  Se  Se7  1  0.500273  0.500008  0.499411  1.0
  Se  Se8  1  0.999744  0.499999  0.500548  1.0
