# generated using pymatgen
data_KHF2
_symmetry_space_group_name_H-M   'P 1'
_cell_length_a   5.30929966
_cell_length_b   5.30929965
_cell_length_c   5.30929965
_cell_angle_alpha   99.35840222
_cell_angle_beta   114.75223580
_cell_angle_gamma   114.75223578
_symmetry_Int_Tables_number   1
_chemical_formula_structural   KHF2
_chemical_formula_sum   'K2 H2 F4'
_cell_volume   112.58865051
_cell_formula_units_Z   2
loop_
 _symmetry_equiv_pos_site_id
 _symmetry_equiv_pos_as_xyz
  1  'x, y, z'
loop_
 _atom_site_type_symbol
 _atom_site_label
 _atom_site_symmetry_multiplicity
 _atom_site_fract_x
 _atom_site_fract_y
 _atom_site_fract_z
 _atom_site_occupancy
  K  K1  1  0.000000  0.750000  0.750000  1.0
  K  K2  1  0.000000  0.250000  0.250000  1.0
  H  H3  1  0.500000  0.500000  0.000000  1.0
  H  H4  1  0.500000  0.000000  0.500000  1.0
  F  F5  1  0.215705  0.357852  0.857852  1.0
  F  F6  1  0.500000  0.857852  0.642148  1.0
  F  F7  1  0.784295  0.642148  0.142148  1.0
  F  F8  1  0.500000  0.142148  0.357852  1.0
