# generated using pymatgen
data_BaZn5
_symmetry_space_group_name_H-M   'P 1'
_cell_length_a   5.33743543
_cell_length_b   6.91794948
_cell_length_c   6.91794948
_cell_angle_alpha   104.30312955
_cell_angle_beta   90.00000000
_cell_angle_gamma   90.00000000
_symmetry_Int_Tables_number   1
_chemical_formula_structural   BaZn5
_chemical_formula_sum   'Ba2 Zn10'
_cell_volume   247.52107746
_cell_formula_units_Z   2
loop_
 _symmetry_equiv_pos_site_id
 _symmetry_equiv_pos_as_xyz
  1  'x, y, z'
loop_
 _atom_site_type_symbol
 _atom_site_label
 _atom_site_symmetry_multiplicity
 _atom_site_fract_x
 _atom_site_fract_y
 _atom_site_fract_z
 _atom_site_occupancy
  Ba  Ba1  1  0.750000  0.331622  0.331622  1.0
  Ba  Ba2  1  0.250000  0.668378  0.668378  1.0
  Zn  Zn3  1  0.500000  0.205035  0.794965  1.0
  Zn  Zn4  1  0.000000  0.794965  0.205035  1.0
  Zn  Zn5  1  0.250000  0.078380  0.078380  1.0
  Zn  Zn6  1  0.750000  0.921620  0.921620  1.0
  Zn  Zn7  1  0.250000  0.464156  0.080534  1.0
  Zn  Zn8  1  0.750000  0.535844  0.919466  1.0
  Zn  Zn9  1  0.250000  0.080534  0.464156  1.0
  Zn  Zn10  1  0.750000  0.919466  0.535844  1.0
  Zn  Zn11  1  0.000000  0.205035  0.794965  1.0
  Zn  Zn12  1  0.500000  0.794965  0.205035  1.0
