# generated using pymatgen
data_Si2NiP3
_symmetry_space_group_name_H-M   'P 1'
_cell_length_a   3.51721663
_cell_length_b   5.32754298
_cell_length_c   6.42586244
_cell_angle_alpha   114.49029734
_cell_angle_beta   105.88316498
_cell_angle_gamma   89.99999991
_symmetry_Int_Tables_number   1
_chemical_formula_structural   Si2NiP3
_chemical_formula_sum   'Si2 Ni1 P3'
_cell_volume   104.50317810
_cell_formula_units_Z   1
loop_
 _symmetry_equiv_pos_site_id
 _symmetry_equiv_pos_as_xyz
  1  'x, y, z'
loop_
 _atom_site_type_symbol
 _atom_site_label
 _atom_site_symmetry_multiplicity
 _atom_site_fract_x
 _atom_site_fract_y
 _atom_site_fract_z
 _atom_site_occupancy
  Si  Si1  1  0.834793  0.077219  0.669587  1.0
  Si  Si2  1  0.165207  0.407632  0.330413  1.0
  Ni  Ni3  1  0.500000  0.752352  0.000000  1.0
  P  P4  1  0.000000  0.996180  0.000000  1.0
  P  P5  1  0.337905  0.349513  0.675809  1.0
  P  P6  1  0.662095  0.673704  0.324191  1.0
