# generated using pymatgen
data_Si
_symmetry_space_group_name_H-M   'P 1'
_cell_length_a   3.85048170
_cell_length_b   3.85048170
_cell_length_c   6.36568613
_cell_angle_alpha   90.00000000
_cell_angle_beta   90.00000000
_cell_angle_gamma   119.96736259
_symmetry_Int_Tables_number   1
_chemical_formula_structural   Si
_chemical_formula_sum   Si4
_cell_volume   81.76147459
_cell_formula_units_Z   4
loop_
 _symmetry_equiv_pos_site_id
 _symmetry_equiv_pos_as_xyz
  1  'x, y, z'
loop_
 _atom_site_type_symbol
 _atom_site_label
 _atom_site_symmetry_multiplicity
 _atom_site_fract_x
 _atom_site_fract_y
 _atom_site_fract_z
 _atom_site_occupancy
  Si  Si1  1  0.666494  0.333506  0.499956  1.0
  Si  Si2  1  0.000206  0.999794  0.999956  1.0
  Si  Si3  1  0.666494  0.333506  0.874044  1.0
  Si  Si4  1  0.000206  0.999794  0.374044  1.0
