# generated using pymatgen
data_PdSO4
_symmetry_space_group_name_H-M   'P 1'
_cell_length_a   4.84341390
_cell_length_b   4.84341390
_cell_length_c   8.02275330
_cell_angle_alpha   84.57908150
_cell_angle_beta   84.57908149
_cell_angle_gamma   71.17735908
_symmetry_Int_Tables_number   1
_chemical_formula_structural   PdSO4
_chemical_formula_sum   'Pd2 S2 O8'
_cell_volume   176.93215005
_cell_formula_units_Z   2
loop_
 _symmetry_equiv_pos_site_id
 _symmetry_equiv_pos_as_xyz
  1  'x, y, z'
loop_
 _atom_site_type_symbol
 _atom_site_label
 _atom_site_symmetry_multiplicity
 _atom_site_fract_x
 _atom_site_fract_y
 _atom_site_fract_z
 _atom_site_occupancy
  Pd  Pd1  1  0.000000  0.500000  0.500000  1.0
  Pd  Pd2  1  0.500000  0.000000  0.000000  1.0
  S  S3  1  0.926589  0.073411  0.250000  1.0
  S  S4  1  0.073411  0.926589  0.750000  1.0
  O  O5  1  0.230903  0.086808  0.214686  1.0
  O  O6  1  0.913192  0.769097  0.285314  1.0
  O  O7  1  0.769097  0.913192  0.785314  1.0
  O  O8  1  0.086808  0.230903  0.714686  1.0
  O  O9  1  0.201826  0.752223  0.600612  1.0
  O  O10  1  0.247778  0.798174  0.899388  1.0
  O  O11  1  0.798174  0.247778  0.399388  1.0
  O  O12  1  0.752223  0.201826  0.100612  1.0
