# generated using pymatgen
data_H2SeO4
_symmetry_space_group_name_H-M   'P 1'
_cell_length_a   4.71127054
_cell_length_b   8.43967899
_cell_length_c   9.09317355
_cell_angle_alpha   90.00000000
_cell_angle_beta   90.00000000
_cell_angle_gamma   90.00000000
_symmetry_Int_Tables_number   1
_chemical_formula_structural   H2SeO4
_chemical_formula_sum   'H8 Se4 O16'
_cell_volume   361.55922938
_cell_formula_units_Z   4
loop_
 _symmetry_equiv_pos_site_id
 _symmetry_equiv_pos_as_xyz
  1  'x, y, z'
loop_
 _atom_site_type_symbol
 _atom_site_label
 _atom_site_symmetry_multiplicity
 _atom_site_fract_x
 _atom_site_fract_y
 _atom_site_fract_z
 _atom_site_occupancy
  H  H1  1  0.423300  0.529269  0.543000  1.0
  H  H2  1  0.923300  0.470731  0.957000  1.0
  H  H3  1  0.076700  0.029269  0.457000  1.0
  H  H4  1  0.576700  0.970731  0.043000  1.0
  H  H5  1  0.984201  0.790394  0.735480  1.0
  H  H6  1  0.484201  0.209606  0.764520  1.0
  H  H7  1  0.515799  0.290394  0.264520  1.0
  H  H8  1  0.015799  0.709606  0.235480  1.0
  Se  Se9  1  0.426891  0.787853  0.629006  1.0
  Se  Se10  1  0.573109  0.712147  0.129006  1.0
  Se  Se11  1  0.073109  0.287853  0.370994  1.0
  Se  Se12  1  0.926891  0.212147  0.870994  1.0
  O  O13  1  0.072618  0.393151  0.920478  1.0
  O  O14  1  0.427382  0.893151  0.079522  1.0
  O  O15  1  0.927382  0.106849  0.420478  1.0
  O  O16  1  0.220054  0.375329  0.512482  1.0
  O  O17  1  0.279946  0.875329  0.487518  1.0
  O  O18  1  0.779946  0.124671  0.012482  1.0
  O  O19  1  0.806825  0.378810  0.291006  1.0
  O  O20  1  0.720054  0.624671  0.987518  1.0
  O  O21  1  0.693175  0.878810  0.708994  1.0
  O  O22  1  0.193175  0.121190  0.791006  1.0
  O  O23  1  0.826071  0.764627  0.259181  1.0
  O  O24  1  0.306825  0.621190  0.208994  1.0
  O  O25  1  0.173929  0.735373  0.759181  1.0
  O  O26  1  0.673929  0.264627  0.740819  1.0
  O  O27  1  0.326071  0.235373  0.240819  1.0
  O  O28  1  0.572618  0.606849  0.579522  1.0
