# generated using pymatgen
data_Ca2SiIr2
_symmetry_space_group_name_H-M   'P 1'
_cell_length_a   5.69177642
_cell_length_b   5.69177671
_cell_length_c   7.33574785
_cell_angle_alpha   81.09753964
_cell_angle_beta   81.09753915
_cell_angle_gamma   61.95189007
_symmetry_Int_Tables_number   1
_chemical_formula_structural   Ca2SiIr2
_chemical_formula_sum   'Ca4 Si2 Ir4'
_cell_volume   206.29507155
_cell_formula_units_Z   2
loop_
 _symmetry_equiv_pos_site_id
 _symmetry_equiv_pos_as_xyz
  1  'x, y, z'
loop_
 _atom_site_type_symbol
 _atom_site_label
 _atom_site_symmetry_multiplicity
 _atom_site_fract_x
 _atom_site_fract_y
 _atom_site_fract_z
 _atom_site_occupancy
  Ca  Ca1  1  0.724064  0.983401  0.140222  1.0
  Ca  Ca2  1  0.016599  0.275936  0.359778  1.0
  Ca  Ca3  1  0.275936  0.016599  0.859778  1.0
  Ca  Ca4  1  0.983401  0.724064  0.640222  1.0
  Si  Si5  1  0.565482  0.434518  0.750000  1.0
  Si  Si6  1  0.434518  0.565482  0.250000  1.0
  Ir  Ir7  1  0.774527  0.490169  0.990108  1.0
  Ir  Ir8  1  0.509831  0.225473  0.509892  1.0
  Ir  Ir9  1  0.225473  0.509831  0.009892  1.0
  Ir  Ir10  1  0.490169  0.774527  0.490108  1.0
