# generated using pymatgen
data_ZrPbO3
_symmetry_space_group_name_H-M   'P 1'
_cell_length_a   4.17635609
_cell_length_b   4.27679085
_cell_length_c   4.27679085
_cell_angle_alpha   91.63484309
_cell_angle_beta   90.00000000
_cell_angle_gamma   90.00000000
_symmetry_Int_Tables_number   1
_chemical_formula_structural   ZrPbO3
_chemical_formula_sum   'Zr1 Pb1 O3'
_cell_volume   76.35838424
_cell_formula_units_Z   1
loop_
 _symmetry_equiv_pos_site_id
 _symmetry_equiv_pos_as_xyz
  1  'x, y, z'
loop_
 _atom_site_type_symbol
 _atom_site_label
 _atom_site_symmetry_multiplicity
 _atom_site_fract_x
 _atom_site_fract_y
 _atom_site_fract_z
 _atom_site_occupancy
  Zr  Zr1  1  0.500000  0.493117  0.506883  1.0
  Pb  Pb2  1  0.000000  0.054978  0.945022  1.0
  O  O3  1  0.500000  0.436846  0.032034  1.0
  O  O4  1  0.500000  0.967966  0.563154  1.0
  O  O5  1  0.000000  0.440094  0.559906  1.0
