# generated using pymatgen
data_LiErS2
_symmetry_space_group_name_H-M   'P 1'
_cell_length_a   7.63439120
_cell_length_b   10.15482075
_cell_length_c   6.69600616
_cell_angle_alpha   29.10715147
_cell_angle_beta   55.23481831
_cell_angle_gamma   41.24689961
_symmetry_Int_Tables_number   1
_chemical_formula_structural   LiErS2
_chemical_formula_sum   'Li2 Er2 S4'
_cell_volume   160.28771738
_cell_formula_units_Z   2
loop_
 _symmetry_equiv_pos_site_id
 _symmetry_equiv_pos_as_xyz
  1  'x, y, z'
loop_
 _atom_site_type_symbol
 _atom_site_label
 _atom_site_symmetry_multiplicity
 _atom_site_fract_x
 _atom_site_fract_y
 _atom_site_fract_z
 _atom_site_occupancy
  Li  Li1  1  0.000005  0.000008  0.999983  1.0
  Li  Li2  1  0.749995  0.499992  0.000017  1.0
  Er  Er3  1  0.249998  0.500021  0.999973  1.0
  Er  Er4  1  0.500002  0.999979  0.000027  1.0
  S  S5  1  0.254461  0.999999  0.491028  1.0
  S  S6  1  0.745557  0.000010  0.508899  1.0
  S  S7  1  0.495539  0.500001  0.508972  1.0
  S  S8  1  0.004443  0.499990  0.491101  1.0
