# generated using pymatgen
data_SbPd2
_symmetry_space_group_name_H-M   'P 1'
_cell_length_a   3.46351783
_cell_length_b   7.03518469
_cell_length_c   9.04719904
_cell_angle_alpha   90.00000000
_cell_angle_beta   101.03530344
_cell_angle_gamma   90.00000000
_symmetry_Int_Tables_number   1
_chemical_formula_structural   SbPd2
_chemical_formula_sum   'Sb4 Pd8'
_cell_volume   216.37224514
_cell_formula_units_Z   4
loop_
 _symmetry_equiv_pos_site_id
 _symmetry_equiv_pos_as_xyz
  1  'x, y, z'
loop_
 _atom_site_type_symbol
 _atom_site_label
 _atom_site_symmetry_multiplicity
 _atom_site_fract_x
 _atom_site_fract_y
 _atom_site_fract_z
 _atom_site_occupancy
  Sb  Sb1  1  0.443071  0.197131  0.886141  1.0
  Sb  Sb2  1  0.556929  0.697131  0.113859  1.0
  Sb  Sb3  1  0.794286  0.728233  0.588572  1.0
  Sb  Sb4  1  0.205714  0.228233  0.411428  1.0
  Pd  Pd5  1  0.038415  0.003002  0.076830  1.0
  Pd  Pd6  1  0.961585  0.503002  0.923170  1.0
  Pd  Pd7  1  0.825035  0.106187  0.650070  1.0
  Pd  Pd8  1  0.174965  0.606187  0.349930  1.0
  Pd  Pd9  1  0.669791  0.953558  0.339582  1.0
  Pd  Pd10  1  0.330209  0.453558  0.660418  1.0
  Pd  Pd11  1  0.413044  0.826190  0.826088  1.0
  Pd  Pd12  1  0.586956  0.326190  0.173912  1.0
