# generated using pymatgen
data_Zn(InS2)2
_symmetry_space_group_name_H-M   'P 1'
_cell_length_a   7.60304232
_cell_length_b   7.60304232
_cell_length_c   7.60304233
_cell_angle_alpha   60.00000001
_cell_angle_beta   60.00000002
_cell_angle_gamma   59.99999998
_symmetry_Int_Tables_number   1
_chemical_formula_structural   Zn(InS2)2
_chemical_formula_sum   'Zn2 In4 S8'
_cell_volume   310.77582380
_cell_formula_units_Z   2
loop_
 _symmetry_equiv_pos_site_id
 _symmetry_equiv_pos_as_xyz
  1  'x, y, z'
loop_
 _atom_site_type_symbol
 _atom_site_label
 _atom_site_symmetry_multiplicity
 _atom_site_fract_x
 _atom_site_fract_y
 _atom_site_fract_z
 _atom_site_occupancy
  Zn  Zn1  1  0.125000  0.125000  0.125000  1.0
  Zn  Zn2  1  0.875000  0.875000  0.875000  1.0
  In  In3  1  0.500000  0.500000  0.000000  1.0
  In  In4  1  0.500000  0.500000  0.500000  1.0
  In  In5  1  0.000000  0.500000  0.500000  1.0
  In  In6  1  0.500000  0.000000  0.500000  1.0
  S  S7  1  0.745612  0.745612  0.745612  1.0
  S  S8  1  0.254388  0.254388  0.736837  1.0
  S  S9  1  0.254388  0.736837  0.254388  1.0
  S  S10  1  0.736837  0.254388  0.254388  1.0
  S  S11  1  0.745612  0.263163  0.745612  1.0
  S  S12  1  0.263163  0.745612  0.745612  1.0
  S  S13  1  0.254388  0.254388  0.254388  1.0
  S  S14  1  0.745612  0.745612  0.263163  1.0
