# generated using pymatgen
data_Ba2S3
_symmetry_space_group_name_H-M   'P 1'
_cell_length_a   6.09460292
_cell_length_b   6.09460292
_cell_length_c   9.15348266
_cell_angle_alpha   109.44559936
_cell_angle_beta   109.44559934
_cell_angle_gamma   89.99999998
_symmetry_Int_Tables_number   1
_chemical_formula_structural   Ba2S3
_chemical_formula_sum   'Ba4 S6'
_cell_volume   299.95890388
_cell_formula_units_Z   2
loop_
 _symmetry_equiv_pos_site_id
 _symmetry_equiv_pos_as_xyz
  1  'x, y, z'
loop_
 _atom_site_type_symbol
 _atom_site_label
 _atom_site_symmetry_multiplicity
 _atom_site_fract_x
 _atom_site_fract_y
 _atom_site_fract_z
 _atom_site_occupancy
  Ba  Ba1  1  0.954421  0.454421  0.908843  1.0
  Ba  Ba2  1  0.204421  0.204421  0.408843  1.0
  Ba  Ba3  1  0.549545  0.049545  0.099090  1.0
  Ba  Ba4  1  0.799545  0.799545  0.599090  1.0
  S  S5  1  0.969027  0.642043  0.284087  1.0
  S  S6  1  0.392043  0.219027  0.784087  1.0
  S  S7  1  0.392043  0.565060  0.784087  1.0
  S  S8  1  0.315060  0.642043  0.284087  1.0
  S  S9  1  0.999147  0.999147  0.998294  1.0
  S  S10  1  0.749147  0.249147  0.498294  1.0
