# generated using pymatgen
data_SiO2
_symmetry_space_group_name_H-M   'P 1'
_cell_length_a   10.11250662
_cell_length_b   10.11269358
_cell_length_c   10.27172499
_cell_angle_alpha   119.48969279
_cell_angle_beta   119.48859740
_cell_angle_gamma   89.99990995
_symmetry_Int_Tables_number   1
_chemical_formula_structural   SiO2
_chemical_formula_sum   'Si16 O32'
_cell_volume   754.09474668
_cell_formula_units_Z   16
loop_
 _symmetry_equiv_pos_site_id
 _symmetry_equiv_pos_as_xyz
  1  'x, y, z'
loop_
 _atom_site_type_symbol
 _atom_site_label
 _atom_site_symmetry_multiplicity
 _atom_site_fract_x
 _atom_site_fract_y
 _atom_site_fract_z
 _atom_site_occupancy
  Si  Si1  1  0.499996  0.499999  0.499995  1.0
  Si  Si2  1  0.499996  0.499999  0.999995  1.0
  Si  Si3  1  0.499996  0.999999  0.499995  1.0
  Si  Si4  1  0.499996  0.999999  0.999995  1.0
  Si  Si5  1  0.999996  0.499999  0.499995  1.0
  Si  Si6  1  0.999996  0.499999  0.999995  1.0
  Si  Si7  1  0.999996  0.999999  0.499995  1.0
  Si  Si8  1  0.999996  0.999999  0.999995  1.0
  Si  Si9  1  0.125004  0.374998  0.250005  1.0
  Si  Si10  1  0.125004  0.374998  0.750005  1.0
  Si  Si11  1  0.125004  0.874998  0.250005  1.0
  Si  Si12  1  0.125004  0.874998  0.750005  1.0
  Si  Si13  1  0.625004  0.374998  0.250005  1.0
  Si  Si14  1  0.625004  0.374998  0.750005  1.0
  Si  Si15  1  0.625004  0.874998  0.250005  1.0
  Si  Si16  1  0.625004  0.874998  0.750005  1.0
  O  O17  1  0.018515  0.437500  0.125000  1.0
  O  O18  1  0.018515  0.437500  0.625000  1.0
  O  O19  1  0.018515  0.937500  0.125000  1.0
  O  O20  1  0.018515  0.937500  0.625000  1.0
  O  O21  1  0.518515  0.437500  0.125000  1.0
  O  O22  1  0.518515  0.437500  0.625000  1.0
  O  O23  1  0.518515  0.937500  0.125000  1.0
  O  O24  1  0.518515  0.937500  0.625000  1.0
  O  O25  1  0.062499  0.393514  0.374999  1.0
  O  O26  1  0.062499  0.393514  0.874999  1.0
  O  O27  1  0.062499  0.893514  0.374999  1.0
  O  O28  1  0.062499  0.893514  0.874999  1.0
  O  O29  1  0.562499  0.393514  0.374999  1.0
  O  O30  1  0.562499  0.393514  0.874999  1.0
  O  O31  1  0.562499  0.893514  0.374999  1.0
  O  O32  1  0.562499  0.893514  0.874999  1.0
  O  O33  1  0.106485  0.187500  0.124999  1.0
  O  O34  1  0.106485  0.187500  0.624999  1.0
  O  O35  1  0.106485  0.687500  0.124999  1.0
  O  O36  1  0.106485  0.687500  0.624999  1.0
  O  O37  1  0.606485  0.187500  0.124999  1.0
  O  O38  1  0.606485  0.187500  0.624999  1.0
  O  O39  1  0.606485  0.687500  0.124999  1.0
  O  O40  1  0.606485  0.687500  0.624999  1.0
  O  O41  1  0.312500  0.481488  0.375002  1.0
  O  O42  1  0.312500  0.481488  0.875002  1.0
  O  O43  1  0.312500  0.981488  0.375002  1.0
  O  O44  1  0.312500  0.981488  0.875002  1.0
  O  O45  1  0.812500  0.481488  0.375002  1.0
  O  O46  1  0.812500  0.481488  0.875002  1.0
  O  O47  1  0.812500  0.981488  0.375002  1.0
  O  O48  1  0.812500  0.981488  0.875002  1.0
