# generated using pymatgen
data_TmAgPb
_symmetry_space_group_name_H-M   'P 1'
_cell_length_a   7.48291951
_cell_length_b   7.48291951
_cell_length_c   4.55713684
_cell_angle_alpha   90.00000000
_cell_angle_beta   90.00000000
_cell_angle_gamma   119.99999997
_symmetry_Int_Tables_number   1
_chemical_formula_structural   TmAgPb
_chemical_formula_sum   'Tm3 Ag3 Pb3'
_cell_volume   220.98604478
_cell_formula_units_Z   3
loop_
 _symmetry_equiv_pos_site_id
 _symmetry_equiv_pos_as_xyz
  1  'x, y, z'
loop_
 _atom_site_type_symbol
 _atom_site_label
 _atom_site_symmetry_multiplicity
 _atom_site_fract_x
 _atom_site_fract_y
 _atom_site_fract_z
 _atom_site_occupancy
  Tm  Tm1  1  0.566677  0.000000  0.500000  1.0
  Tm  Tm2  1  0.433323  0.433323  0.500000  1.0
  Tm  Tm3  1  0.000000  0.566677  0.500000  1.0
  Ag  Ag4  1  0.754776  0.754776  0.000000  1.0
  Ag  Ag5  1  0.000000  0.245224  0.000000  1.0
  Ag  Ag6  1  0.245224  0.000000  0.000000  1.0
  Pb  Pb7  1  0.000000  0.000000  0.500000  1.0
  Pb  Pb8  1  0.333333  0.666667  0.000000  1.0
  Pb  Pb9  1  0.666667  0.333333  0.000000  1.0
