# generated using pymatgen
data_Cu4SiP8
_symmetry_space_group_name_H-M   'P 1'
_cell_length_a   5.73164915
_cell_length_b   9.09866016
_cell_length_c   9.09865997
_cell_angle_alpha   84.30646395
_cell_angle_beta   71.64086112
_cell_angle_gamma   71.64086416
_symmetry_Int_Tables_number   1
_chemical_formula_structural   Cu4SiP8
_chemical_formula_sum   'Cu8 Si2 P16'
_cell_volume   427.42432677
_cell_formula_units_Z   2
loop_
 _symmetry_equiv_pos_site_id
 _symmetry_equiv_pos_as_xyz
  1  'x, y, z'
loop_
 _atom_site_type_symbol
 _atom_site_label
 _atom_site_symmetry_multiplicity
 _atom_site_fract_x
 _atom_site_fract_y
 _atom_site_fract_z
 _atom_site_occupancy
  Cu  Cu1  1  0.643142  0.537541  0.059138  1.0
  Cu  Cu2  1  0.702280  0.440862  0.537541  1.0
  Cu  Cu3  1  0.680683  0.059138  0.962459  1.0
  Cu  Cu4  1  0.239821  0.962459  0.440862  1.0
  Cu  Cu5  1  0.356858  0.462459  0.940862  1.0
  Cu  Cu6  1  0.297720  0.559138  0.462459  1.0
  Cu  Cu7  1  0.319317  0.940862  0.037541  1.0
  Cu  Cu8  1  0.760179  0.037541  0.559138  1.0
  Si  Si9  1  0.125000  0.250000  0.750000  1.0
  Si  Si10  1  0.875000  0.750000  0.250000  1.0
  P  P11  1  0.004835  0.953314  0.277703  1.0
  P  P12  1  0.458149  0.277703  0.546686  1.0
  P  P13  1  0.717462  0.777704  0.046686  1.0
  P  P14  1  0.764147  0.453314  0.777704  1.0
  P  P15  1  0.995165  0.046686  0.722296  1.0
  P  P16  1  0.541851  0.722296  0.453314  1.0
  P  P17  1  0.282538  0.222297  0.953314  1.0
  P  P18  1  0.235853  0.546686  0.222297  1.0
  P  P19  1  0.256798  0.868757  0.824103  1.0
  P  P20  1  0.080901  0.675897  0.868757  1.0
  P  P21  1  0.625555  0.824103  0.631243  1.0
  P  P22  1  0.949658  0.631243  0.675897  1.0
  P  P23  1  0.743202  0.131243  0.175897  1.0
  P  P24  1  0.919099  0.324103  0.131243  1.0
  P  P25  1  0.374445  0.175897  0.368757  1.0
  P  P26  1  0.050342  0.368757  0.324103  1.0
