# generated using pymatgen
data_YbF3
_symmetry_space_group_name_H-M   'P 1'
_cell_length_a   4.14281379
_cell_length_b   6.49728263
_cell_length_c   7.15615383
_cell_angle_alpha   90.00000000
_cell_angle_beta   90.00000000
_cell_angle_gamma   90.00000000
_symmetry_Int_Tables_number   1
_chemical_formula_structural   YbF3
_chemical_formula_sum   'Yb4 F12'
_cell_volume   192.62242219
_cell_formula_units_Z   4
loop_
 _symmetry_equiv_pos_site_id
 _symmetry_equiv_pos_as_xyz
  1  'x, y, z'
loop_
 _atom_site_type_symbol
 _atom_site_label
 _atom_site_symmetry_multiplicity
 _atom_site_fract_x
 _atom_site_fract_y
 _atom_site_fract_z
 _atom_site_occupancy
  Yb  Yb1  1  0.932867  0.613507  0.750000  1.0
  Yb  Yb2  1  0.432867  0.886493  0.250000  1.0
  Yb  Yb3  1  0.567133  0.113507  0.750000  1.0
  Yb  Yb4  1  0.067133  0.386493  0.250000  1.0
  F  F5  1  0.072094  0.961428  0.750000  1.0
  F  F6  1  0.572094  0.538572  0.250000  1.0
  F  F7  1  0.427906  0.461428  0.750000  1.0
  F  F8  1  0.927906  0.038572  0.250000  1.0
  F  F9  1  0.382229  0.182297  0.052431  1.0
  F  F10  1  0.882229  0.317703  0.947569  1.0
  F  F11  1  0.117771  0.682297  0.447569  1.0
  F  F12  1  0.617771  0.817703  0.552431  1.0
  F  F13  1  0.617771  0.817703  0.947569  1.0
  F  F14  1  0.117771  0.682297  0.052431  1.0
  F  F15  1  0.882229  0.317703  0.552431  1.0
  F  F16  1  0.382229  0.182297  0.447569  1.0
