# generated using pymatgen
data_LiDySe2
_symmetry_space_group_name_H-M   'P 1'
_cell_length_a   8.05272927
_cell_length_b   10.70213022
_cell_length_c   7.05063196
_cell_angle_alpha   29.12803202
_cell_angle_beta   55.17551978
_cell_angle_gamma   41.19766778
_symmetry_Int_Tables_number   1
_chemical_formula_structural   LiDySe2
_chemical_formula_sum   'Li2 Dy2 Se4'
_cell_volume   187.63706507
_cell_formula_units_Z   2
loop_
 _symmetry_equiv_pos_site_id
 _symmetry_equiv_pos_as_xyz
  1  'x, y, z'
loop_
 _atom_site_type_symbol
 _atom_site_label
 _atom_site_symmetry_multiplicity
 _atom_site_fract_x
 _atom_site_fract_y
 _atom_site_fract_z
 _atom_site_occupancy
  Li  Li1  1  0.000004  0.000000  0.000000  1.0
  Li  Li2  1  0.749996  0.500000  0.000000  1.0
  Dy  Dy3  1  0.499982  0.000000  0.000000  1.0
  Dy  Dy4  1  0.250018  0.500000  0.000000  1.0
  Se  Se5  1  0.253106  0.000040  0.493708  1.0
  Se  Se6  1  0.746894  0.999960  0.506292  1.0
  Se  Se7  1  0.496894  0.499960  0.506292  1.0
  Se  Se8  1  0.003106  0.500040  0.493708  1.0
