# generated using pymatgen
data_U(Cr3P2)2
_symmetry_space_group_name_H-M   'P 1'
_cell_length_a   7.03065724
_cell_length_b   7.03065724
_cell_length_c   3.33195783
_cell_angle_alpha   90.00000000
_cell_angle_beta   90.00000000
_cell_angle_gamma   120.00000002
_symmetry_Int_Tables_number   1
_chemical_formula_structural   U(Cr3P2)2
_chemical_formula_sum   'U1 Cr6 P4'
_cell_volume   142.63364447
_cell_formula_units_Z   1
loop_
 _symmetry_equiv_pos_site_id
 _symmetry_equiv_pos_as_xyz
  1  'x, y, z'
loop_
 _atom_site_type_symbol
 _atom_site_label
 _atom_site_symmetry_multiplicity
 _atom_site_fract_x
 _atom_site_fract_y
 _atom_site_fract_z
 _atom_site_occupancy
  U  U1  1  0.000000  0.000000  0.000000  1.0
  Cr  Cr2  1  0.800020  0.600040  0.500000  1.0
  Cr  Cr3  1  0.073818  0.536909  0.000000  1.0
  Cr  Cr4  1  0.463091  0.926182  0.000000  1.0
  Cr  Cr5  1  0.800020  0.199980  0.500000  1.0
  Cr  Cr6  1  0.463091  0.536909  0.000000  1.0
  Cr  Cr7  1  0.399960  0.199980  0.500000  1.0
  P  P8  1  0.666667  0.333333  0.000000  1.0
  P  P9  1  0.187904  0.812096  0.500000  1.0
  P  P10  1  0.187904  0.375809  0.500000  1.0
  P  P11  1  0.624191  0.812096  0.500000  1.0
