# generated using pymatgen
data_ZnS
_symmetry_space_group_name_H-M   'P 1'
_cell_length_a   3.85298081
_cell_length_b   3.85298081
_cell_length_c   18.90376084
_cell_angle_alpha   90.00000000
_cell_angle_beta   90.00000000
_cell_angle_gamma   119.99999995
_symmetry_Int_Tables_number   1
_chemical_formula_structural   ZnS
_chemical_formula_sum   'Zn6 S6'
_cell_volume   243.03707968
_cell_formula_units_Z   6
loop_
 _symmetry_equiv_pos_site_id
 _symmetry_equiv_pos_as_xyz
  1  'x, y, z'
loop_
 _atom_site_type_symbol
 _atom_site_label
 _atom_site_symmetry_multiplicity
 _atom_site_fract_x
 _atom_site_fract_y
 _atom_site_fract_z
 _atom_site_occupancy
  Zn  Zn1  1  0.333333  0.666667  0.833281  1.0
  Zn  Zn2  1  0.666667  0.333333  0.333281  1.0
  Zn  Zn3  1  0.666667  0.333333  0.666778  1.0
  Zn  Zn4  1  0.333333  0.666667  0.166778  1.0
  Zn  Zn5  1  0.000000  0.000000  0.500015  1.0
  Zn  Zn6  1  0.000000  0.000000  0.000015  1.0
  S  S7  1  0.333333  0.666667  0.958160  1.0
  S  S8  1  0.666667  0.333333  0.458160  1.0
  S  S9  1  0.666667  0.333333  0.791646  1.0
  S  S10  1  0.333333  0.666667  0.291646  1.0
  S  S11  1  0.000000  0.000000  0.625120  1.0
  S  S12  1  0.000000  0.000000  0.125120  1.0
