# generated using pymatgen
data_PrFePO
_symmetry_space_group_name_H-M   'P 1'
_cell_length_a   3.94954621
_cell_length_b   3.94954621
_cell_length_c   8.85431834
_cell_angle_alpha   90.00000000
_cell_angle_beta   90.00000000
_cell_angle_gamma   90.00000000
_symmetry_Int_Tables_number   1
_chemical_formula_structural   PrFePO
_chemical_formula_sum   'Pr2 Fe2 P2 O2'
_cell_volume   138.11776151
_cell_formula_units_Z   2
loop_
 _symmetry_equiv_pos_site_id
 _symmetry_equiv_pos_as_xyz
  1  'x, y, z'
loop_
 _atom_site_type_symbol
 _atom_site_label
 _atom_site_symmetry_multiplicity
 _atom_site_fract_x
 _atom_site_fract_y
 _atom_site_fract_z
 _atom_site_occupancy
  Pr  Pr1  1  0.750000  0.750000  0.858375  1.0
  Pr  Pr2  1  0.249999  0.249999  0.141625  1.0
  Fe  Fe3  1  0.249999  0.750000  0.500000  1.0
  Fe  Fe4  1  0.750000  0.249999  0.500000  1.0
  P  P5  1  0.750000  0.750000  0.346865  1.0
  P  P6  1  0.249999  0.249999  0.653135  1.0
  O  O7  1  0.249999  0.750000  0.000000  1.0
  O  O8  1  0.750000  0.249999  0.000000  1.0
