# generated using pymatgen
data_UGeSe
_symmetry_space_group_name_H-M   'P 1'
_cell_length_a   3.95930312
_cell_length_b   3.95930312
_cell_length_c   8.73575342
_cell_angle_alpha   103.09785611
_cell_angle_beta   103.09785613
_cell_angle_gamma   89.99999997
_symmetry_Int_Tables_number   1
_chemical_formula_structural   UGeSe
_chemical_formula_sum   'U2 Ge2 Se2'
_cell_volume   129.71930873
_cell_formula_units_Z   2
loop_
 _symmetry_equiv_pos_site_id
 _symmetry_equiv_pos_as_xyz
  1  'x, y, z'
loop_
 _atom_site_type_symbol
 _atom_site_label
 _atom_site_symmetry_multiplicity
 _atom_site_fract_x
 _atom_site_fract_y
 _atom_site_fract_z
 _atom_site_occupancy
  U  U1  1  0.863504  0.863504  0.727007  1.0
  U  U2  1  0.136496  0.136496  0.272993  1.0
  Ge  Ge3  1  0.000000  0.500000  0.000000  1.0
  Ge  Ge4  1  0.500000  0.000000  0.000000  1.0
  Se  Se5  1  0.317483  0.317483  0.634965  1.0
  Se  Se6  1  0.682517  0.682517  0.365035  1.0
