# generated using pymatgen
data_Li5Br2N
_symmetry_space_group_name_H-M   'P 1'
_cell_length_a   3.91647861
_cell_length_b   6.08946062
_cell_length_c   6.94072714
_cell_angle_alpha   116.01943421
_cell_angle_beta   106.38781803
_cell_angle_gamma   90.00000005
_symmetry_Int_Tables_number   1
_chemical_formula_structural   Li5Br2N
_chemical_formula_sum   'Li5 Br2 N1'
_cell_volume   141.23224337
_cell_formula_units_Z   1
loop_
 _symmetry_equiv_pos_site_id
 _symmetry_equiv_pos_as_xyz
  1  'x, y, z'
loop_
 _atom_site_type_symbol
 _atom_site_label
 _atom_site_symmetry_multiplicity
 _atom_site_fract_x
 _atom_site_fract_y
 _atom_site_fract_z
 _atom_site_occupancy
  Li  Li1  1  0.120194  0.903113  0.240388  1.0
  Li  Li2  1  0.879806  0.096887  0.759612  1.0
  Li  Li3  1  0.879806  0.662725  0.759612  1.0
  Li  Li4  1  0.500000  0.000000  0.000000  1.0
  Li  Li5  1  0.120194  0.337275  0.240388  1.0
  Br  Br6  1  0.326342  0.326342  0.652683  1.0
  Br  Br7  1  0.673658  0.673658  0.347317  1.0
  N  N8  1  0.000000  0.000000  0.000000  1.0
