# generated using pymatgen
data_CeS
_symmetry_space_group_name_H-M   'P 1'
_cell_length_a   3.96592396
_cell_length_b   3.96592415
_cell_length_c   10.41965760
_cell_angle_alpha   90.00000000
_cell_angle_beta   90.00000000
_cell_angle_gamma   90.00959080
_symmetry_Int_Tables_number   1
_chemical_formula_structural   CeS
_chemical_formula_sum   'Ce2 S2'
_cell_volume   163.88614086
_cell_formula_units_Z   2
loop_
 _symmetry_equiv_pos_site_id
 _symmetry_equiv_pos_as_xyz
  1  'x, y, z'
loop_
 _atom_site_type_symbol
 _atom_site_label
 _atom_site_symmetry_multiplicity
 _atom_site_fract_x
 _atom_site_fract_y
 _atom_site_fract_z
 _atom_site_occupancy
  Ce  Ce1  1  0.243999  0.256001  0.379532  1.0
  Ce  Ce2  1  0.743999  0.756001  0.620468  1.0
  S  S3  1  0.744001  0.755999  0.346366  1.0
  S  S4  1  0.244001  0.255999  0.653634  1.0
