# generated using pymatgen
data_Ba(CoAs)2
_symmetry_space_group_name_H-M   'P 1'
_cell_length_a   3.99099624
_cell_length_b   3.99099624
_cell_length_c   6.92375015
_cell_angle_alpha   106.75085691
_cell_angle_beta   106.75085691
_cell_angle_gamma   89.99999998
_symmetry_Int_Tables_number   1
_chemical_formula_structural   Ba(CoAs)2
_chemical_formula_sum   'Ba1 Co2 As2'
_cell_volume   100.70546069
_cell_formula_units_Z   1
loop_
 _symmetry_equiv_pos_site_id
 _symmetry_equiv_pos_as_xyz
  1  'x, y, z'
loop_
 _atom_site_type_symbol
 _atom_site_label
 _atom_site_symmetry_multiplicity
 _atom_site_fract_x
 _atom_site_fract_y
 _atom_site_fract_z
 _atom_site_occupancy
  Ba  Ba1  1  0.000000  0.000000  0.000000  1.0
  Co  Co2  1  0.250000  0.750000  0.500000  1.0
  Co  Co3  1  0.750000  0.250000  0.500000  1.0
  As  As4  1  0.654279  0.654279  0.308558  1.0
  As  As5  1  0.345721  0.345721  0.691442  1.0
