# generated using pymatgen
data_CoO2
_symmetry_space_group_name_H-M   'P 1'
_cell_length_a   2.86916968
_cell_length_b   8.30860101
_cell_length_c   9.92563427
_cell_angle_alpha   90.00250926
_cell_angle_beta   90.00002660
_cell_angle_gamma   90.00003478
_symmetry_Int_Tables_number   1
_chemical_formula_structural   CoO2
_chemical_formula_sum   'Co8 O16'
_cell_volume   236.61507205
_cell_formula_units_Z   8
loop_
 _symmetry_equiv_pos_site_id
 _symmetry_equiv_pos_as_xyz
  1  'x, y, z'
loop_
 _atom_site_type_symbol
 _atom_site_label
 _atom_site_symmetry_multiplicity
 _atom_site_fract_x
 _atom_site_fract_y
 _atom_site_fract_z
 _atom_site_occupancy
  Co  Co1  1  0.249999  0.412166  0.101360  1.0
  Co  Co2  1  0.750000  0.087834  0.601352  1.0
  Co  Co3  1  0.250000  0.912182  0.398635  1.0
  Co  Co4  1  0.750000  0.587820  0.898666  1.0
  Co  Co5  1  0.749999  0.552559  0.384178  1.0
  Co  Co6  1  0.250000  0.447460  0.615803  1.0
  Co  Co7  1  0.750000  0.052557  0.115805  1.0
  Co  Co8  1  0.250000  0.947450  0.884181  1.0
  O  O9  1  0.249999  0.913950  0.068895  1.0
  O  O10  1  0.750000  0.086057  0.931110  1.0
  O  O11  1  0.249999  0.413968  0.431116  1.0
  O  O12  1  0.750000  0.586052  0.568890  1.0
  O  O13  1  0.250000  0.036650  0.714018  1.0
  O  O14  1  0.749999  0.963331  0.285955  1.0
  O  O15  1  0.249999  0.536659  0.785987  1.0
  O  O16  1  0.749999  0.463318  0.214037  1.0
  O  O17  1  0.250000  0.615724  0.022169  1.0
  O  O18  1  0.749999  0.384279  0.977858  1.0
  O  O19  1  0.250000  0.115718  0.477852  1.0
  O  O20  1  0.749999  0.884274  0.522132  1.0
  O  O21  1  0.749999  0.805960  0.851929  1.0
  O  O22  1  0.250000  0.194031  0.148095  1.0
  O  O23  1  0.250000  0.694028  0.351897  1.0
  O  O24  1  0.749999  0.305973  0.648078  1.0
