# generated using pymatgen
data_Mn2Au5
_symmetry_space_group_name_H-M   'P 1'
_cell_length_a   3.93810311
_cell_length_b   5.04941117
_cell_length_c   6.63498506
_cell_angle_alpha   96.47138167
_cell_angle_beta   90.00000000
_cell_angle_gamma   112.95180311
_symmetry_Int_Tables_number   1
_chemical_formula_structural   Mn2Au5
_chemical_formula_sum   'Mn2 Au5'
_cell_volume   120.57882773
_cell_formula_units_Z   1
loop_
 _symmetry_equiv_pos_site_id
 _symmetry_equiv_pos_as_xyz
  1  'x, y, z'
loop_
 _atom_site_type_symbol
 _atom_site_label
 _atom_site_symmetry_multiplicity
 _atom_site_fract_x
 _atom_site_fract_y
 _atom_site_fract_z
 _atom_site_occupancy
  Mn  Mn1  1  0.575789  0.151577  0.718723  1.0
  Mn  Mn2  1  0.424211  0.848423  0.281277  1.0
  Au  Au3  1  0.862897  0.725794  0.566933  1.0
  Au  Au4  1  0.713732  0.427464  0.145282  1.0
  Au  Au5  1  0.286268  0.572536  0.854718  1.0
  Au  Au6  1  0.137103  0.274206  0.433067  1.0
  Au  Au7  1  0.000000  0.000000  0.000000  1.0
