# generated using pymatgen
data_ScCl
_symmetry_space_group_name_H-M   'P 1'
_cell_length_a   10.11512941
_cell_length_b   10.11512941
_cell_length_c   10.11512940
_cell_angle_alpha   19.89581300
_cell_angle_beta   19.89581298
_cell_angle_gamma   19.89581299
_symmetry_Int_Tables_number   1
_chemical_formula_structural   ScCl
_chemical_formula_sum   'Sc2 Cl2'
_cell_volume   104.84253897
_cell_formula_units_Z   2
loop_
 _symmetry_equiv_pos_site_id
 _symmetry_equiv_pos_as_xyz
  1  'x, y, z'
loop_
 _atom_site_type_symbol
 _atom_site_label
 _atom_site_symmetry_multiplicity
 _atom_site_fract_x
 _atom_site_fract_y
 _atom_site_fract_z
 _atom_site_occupancy
  Sc  Sc1  1  0.790809  0.790809  0.790809  1.0
  Sc  Sc2  1  0.209191  0.209191  0.209191  1.0
  Cl  Cl3  1  0.597529  0.597529  0.597529  1.0
  Cl  Cl4  1  0.402471  0.402471  0.402471  1.0
