# generated using pymatgen
data_ErAgS2
_symmetry_space_group_name_H-M   'P 1'
_cell_length_a   7.61614365
_cell_length_b   10.45353681
_cell_length_c   7.15908108
_cell_angle_alpha   28.51500307
_cell_angle_beta   57.86310798
_cell_angle_gamma   43.22500375
_symmetry_Int_Tables_number   1
_chemical_formula_structural   ErAgS2
_chemical_formula_sum   'Er2 Ag2 S4'
_cell_volume   175.82443902
_cell_formula_units_Z   2
loop_
 _symmetry_equiv_pos_site_id
 _symmetry_equiv_pos_as_xyz
  1  'x, y, z'
loop_
 _atom_site_type_symbol
 _atom_site_label
 _atom_site_symmetry_multiplicity
 _atom_site_fract_x
 _atom_site_fract_y
 _atom_site_fract_z
 _atom_site_occupancy
  Er  Er1  1  0.249977  0.000011  0.499995  1.0
  Er  Er2  1  0.000023  0.499989  0.500005  1.0
  Ag  Ag3  1  0.500000  0.499989  0.500035  1.0
  Ag  Ag4  1  0.750000  0.000011  0.499965  1.0
  S  S5  1  0.025311  0.999974  0.949391  1.0
  S  S6  1  0.224689  0.500026  0.050609  1.0
  S  S7  1  0.775294  0.500027  0.949346  1.0
  S  S8  1  0.474706  0.999973  0.050654  1.0
