# generated using pymatgen
data_YbAl2Cu
_symmetry_space_group_name_H-M   'P 1'
_cell_length_a   5.45694479
_cell_length_b   5.45694503
_cell_length_c   9.12677313
_cell_angle_alpha   90.00000000
_cell_angle_beta   107.39470149
_cell_angle_gamma   60.00000454
_symmetry_Int_Tables_number   1
_chemical_formula_structural   YbAl2Cu
_chemical_formula_sum   'Yb3 Al6 Cu3'
_cell_volume   220.89948307
_cell_formula_units_Z   3
loop_
 _symmetry_equiv_pos_site_id
 _symmetry_equiv_pos_as_xyz
  1  'x, y, z'
loop_
 _atom_site_type_symbol
 _atom_site_label
 _atom_site_symmetry_multiplicity
 _atom_site_fract_x
 _atom_site_fract_y
 _atom_site_fract_z
 _atom_site_occupancy
  Yb  Yb1  1  0.000000  0.000000  0.000000  1.0
  Yb  Yb2  1  0.289684  0.855157  0.434526  1.0
  Yb  Yb3  1  0.710317  0.144843  0.565473  1.0
  Al  Al4  1  0.658414  0.420245  0.238171  1.0
  Al  Al5  1  0.658414  0.921340  0.238171  1.0
  Al  Al6  1  0.159512  0.420245  0.238171  1.0
  Al  Al7  1  0.840489  0.579755  0.761829  1.0
  Al  Al8  1  0.341585  0.078659  0.761829  1.0
  Al  Al9  1  0.341585  0.579756  0.761829  1.0
  Cu  Cu10  1  0.669183  0.665408  0.003775  1.0
  Cu  Cu11  1  0.000000  0.500002  0.500000  1.0
  Cu  Cu12  1  0.330818  0.334592  0.996226  1.0
