# generated using pymatgen
data_VAu2
_symmetry_space_group_name_H-M   'P 1'
_cell_length_a   4.81207861
_cell_length_b   4.83671276
_cell_length_c   4.98246270
_cell_angle_alpha   119.03695939
_cell_angle_beta   90.00000000
_cell_angle_gamma   90.00000000
_symmetry_Int_Tables_number   1
_chemical_formula_structural   VAu2
_chemical_formula_sum   'V2 Au4'
_cell_volume   101.38901839
_cell_formula_units_Z   2
loop_
 _symmetry_equiv_pos_site_id
 _symmetry_equiv_pos_as_xyz
  1  'x, y, z'
loop_
 _atom_site_type_symbol
 _atom_site_label
 _atom_site_symmetry_multiplicity
 _atom_site_fract_x
 _atom_site_fract_y
 _atom_site_fract_z
 _atom_site_occupancy
  V  V1  1  0.500000  0.501656  0.000000  1.0
  V  V2  1  0.000000  0.938344  0.000000  1.0
  Au  Au3  1  0.500000  0.837444  0.677132  1.0
  Au  Au4  1  0.500000  0.160313  0.322868  1.0
  Au  Au5  1  0.000000  0.602556  0.322868  1.0
  Au  Au6  1  0.000000  0.279687  0.677132  1.0
