# generated using pymatgen
data_BaCdBi2
_symmetry_space_group_name_H-M   'P 1'
_cell_length_a   4.77248979
_cell_length_b   4.77248978
_cell_length_c   12.74273134
_cell_angle_alpha   100.79311170
_cell_angle_beta   100.79311167
_cell_angle_gamma   90.00000004
_symmetry_Int_Tables_number   1
_chemical_formula_structural   BaCdBi2
_chemical_formula_sum   'Ba2 Cd2 Bi4'
_cell_volume   279.87395581
_cell_formula_units_Z   2
loop_
 _symmetry_equiv_pos_site_id
 _symmetry_equiv_pos_as_xyz
  1  'x, y, z'
loop_
 _atom_site_type_symbol
 _atom_site_label
 _atom_site_symmetry_multiplicity
 _atom_site_fract_x
 _atom_site_fract_y
 _atom_site_fract_z
 _atom_site_occupancy
  Ba  Ba1  1  0.884326  0.884326  0.768651  1.0
  Ba  Ba2  1  0.115674  0.115674  0.231349  1.0
  Cd  Cd3  1  0.250000  0.750000  0.500000  1.0
  Cd  Cd4  1  0.750000  0.250000  0.500000  1.0
  Bi  Bi5  1  0.000000  0.500000  0.000000  1.0
  Bi  Bi6  1  0.670863  0.670863  0.341727  1.0
  Bi  Bi7  1  0.500000  0.000000  0.000000  1.0
  Bi  Bi8  1  0.329137  0.329137  0.658273  1.0
