# generated using pymatgen
data_BaZnBi2
_symmetry_space_group_name_H-M   'P 1'
_cell_length_a   4.68218621
_cell_length_b   4.68218622
_cell_length_c   12.57402545
_cell_angle_alpha   100.73021988
_cell_angle_beta   100.73021992
_cell_angle_gamma   89.99999999
_symmetry_Int_Tables_number   1
_chemical_formula_structural   BaZnBi2
_chemical_formula_sum   'Ba2 Zn2 Bi4'
_cell_volume   265.93141813
_cell_formula_units_Z   2
loop_
 _symmetry_equiv_pos_site_id
 _symmetry_equiv_pos_as_xyz
  1  'x, y, z'
loop_
 _atom_site_type_symbol
 _atom_site_label
 _atom_site_symmetry_multiplicity
 _atom_site_fract_x
 _atom_site_fract_y
 _atom_site_fract_z
 _atom_site_occupancy
  Ba  Ba1  1  0.880946  0.880946  0.761892  1.0
  Ba  Ba2  1  0.119054  0.119054  0.238108  1.0
  Zn  Zn3  1  0.250000  0.750000  0.500000  1.0
  Zn  Zn4  1  0.750000  0.250000  0.500000  1.0
  Bi  Bi5  1  0.000000  0.500000  0.000000  1.0
  Bi  Bi6  1  0.679646  0.679646  0.359292  1.0
  Bi  Bi7  1  0.500000  0.000000  0.000000  1.0
  Bi  Bi8  1  0.320354  0.320354  0.640708  1.0
