# generated using pymatgen
data_Li3NbO4
_symmetry_space_group_name_H-M   'P 1'
_cell_length_a   5.89241634
_cell_length_b   7.86776755
_cell_length_c   5.21392853
_cell_angle_alpha   29.04456494
_cell_angle_beta   55.59319957
_cell_angle_gamma   41.50212298
_symmetry_Int_Tables_number   1
_chemical_formula_structural   Li3NbO4
_chemical_formula_sum   'Li3 Nb1 O4'
_cell_volume   74.68030682
_cell_formula_units_Z   1
loop_
 _symmetry_equiv_pos_site_id
 _symmetry_equiv_pos_as_xyz
  1  'x, y, z'
loop_
 _atom_site_type_symbol
 _atom_site_label
 _atom_site_symmetry_multiplicity
 _atom_site_fract_x
 _atom_site_fract_y
 _atom_site_fract_z
 _atom_site_occupancy
  Li  Li1  1  0.249985  0.500000  0.000000  1.0
  Li  Li2  1  0.750015  0.500000  0.000000  1.0
  Li  Li3  1  0.500000  0.000000  0.000000  1.0
  Nb  Nb4  1  0.000000  0.000000  0.000000  1.0
  O  O5  1  0.225527  0.999940  0.549065  1.0
  O  O6  1  0.774473  0.000060  0.450935  1.0
  O  O7  1  0.500000  0.500000  0.500000  1.0
  O  O8  1  0.000000  0.500000  0.500000  1.0
