# generated using pymatgen
data_Sr3(AlSi)2
_symmetry_space_group_name_H-M   'P 1'
_cell_length_a   4.20462452
_cell_length_b   4.83594115
_cell_length_c   10.16067044
_cell_angle_alpha   103.76696708
_cell_angle_beta   101.94114678
_cell_angle_gamma   89.99999992
_symmetry_Int_Tables_number   1
_chemical_formula_structural   Sr3(AlSi)2
_chemical_formula_sum   'Sr3 Al2 Si2'
_cell_volume   196.05886020
_cell_formula_units_Z   1
loop_
 _symmetry_equiv_pos_site_id
 _symmetry_equiv_pos_as_xyz
  1  'x, y, z'
loop_
 _atom_site_type_symbol
 _atom_site_label
 _atom_site_symmetry_multiplicity
 _atom_site_fract_x
 _atom_site_fract_y
 _atom_site_fract_z
 _atom_site_occupancy
  Sr  Sr1  1  0.500000  0.000000  0.000000  1.0
  Sr  Sr2  1  0.814947  0.814947  0.629895  1.0
  Sr  Sr3  1  0.185053  0.185053  0.370105  1.0
  Al  Al4  1  0.066965  0.566965  0.133931  1.0
  Al  Al5  1  0.933035  0.433035  0.866069  1.0
  Si  Si6  1  0.639430  0.639430  0.278861  1.0
  Si  Si7  1  0.360570  0.360570  0.721139  1.0
