# generated using pymatgen
data_BaSn3Pt
_symmetry_space_group_name_H-M   'P 1'
_cell_length_a   4.97391042
_cell_length_b   4.97391042
_cell_length_c   6.65141048
_cell_angle_alpha   111.95627582
_cell_angle_beta   111.95627585
_cell_angle_gamma   90.00000006
_symmetry_Int_Tables_number   1
_chemical_formula_structural   BaSn3Pt
_chemical_formula_sum   'Ba1 Sn3 Pt1'
_cell_volume   139.66779527
_cell_formula_units_Z   1
loop_
 _symmetry_equiv_pos_site_id
 _symmetry_equiv_pos_as_xyz
  1  'x, y, z'
loop_
 _atom_site_type_symbol
 _atom_site_label
 _atom_site_symmetry_multiplicity
 _atom_site_fract_x
 _atom_site_fract_y
 _atom_site_fract_z
 _atom_site_occupancy
  Ba  Ba1  1  0.001710  0.001710  0.003421  1.0
  Sn  Sn2  1  0.753367  0.253367  0.506733  1.0
  Sn  Sn3  1  0.253367  0.753367  0.506733  1.0
  Sn  Sn4  1  0.417076  0.417076  0.834152  1.0
  Pt  Pt5  1  0.653580  0.653580  0.307161  1.0
