# generated using pymatgen
data_BaTl2
_symmetry_space_group_name_H-M   'P 1'
_cell_length_a   5.37652176
_cell_length_b   5.37652176
_cell_length_c   8.67941313
_cell_angle_alpha   90.00000000
_cell_angle_beta   90.00000000
_cell_angle_gamma   119.99999999
_symmetry_Int_Tables_number   1
_chemical_formula_structural   BaTl2
_chemical_formula_sum   'Ba2 Tl4'
_cell_volume   217.28202904
_cell_formula_units_Z   2
loop_
 _symmetry_equiv_pos_site_id
 _symmetry_equiv_pos_as_xyz
  1  'x, y, z'
loop_
 _atom_site_type_symbol
 _atom_site_label
 _atom_site_symmetry_multiplicity
 _atom_site_fract_x
 _atom_site_fract_y
 _atom_site_fract_z
 _atom_site_occupancy
  Ba  Ba1  1  0.000000  0.000000  0.250000  1.0
  Ba  Ba2  1  0.000000  0.000000  0.750000  1.0
  Tl  Tl3  1  0.333333  0.666667  0.454008  1.0
  Tl  Tl4  1  0.666667  0.333333  0.954008  1.0
  Tl  Tl5  1  0.666667  0.333333  0.545992  1.0
  Tl  Tl6  1  0.333333  0.666667  0.045992  1.0
