# generated using pymatgen
data_BaZn2
_symmetry_space_group_name_H-M   'P 1'
_cell_length_a   5.04614302
_cell_length_b   6.20034953
_cell_length_c   6.20034953
_cell_angle_alpha   78.73798316
_cell_angle_beta   65.98824399
_cell_angle_gamma   65.98824400
_symmetry_Int_Tables_number   1
_chemical_formula_structural   BaZn2
_chemical_formula_sum   'Ba2 Zn4'
_cell_volume   161.76978506
_cell_formula_units_Z   2
loop_
 _symmetry_equiv_pos_site_id
 _symmetry_equiv_pos_as_xyz
  1  'x, y, z'
loop_
 _atom_site_type_symbol
 _atom_site_label
 _atom_site_symmetry_multiplicity
 _atom_site_fract_x
 _atom_site_fract_y
 _atom_site_fract_z
 _atom_site_occupancy
  Ba  Ba1  1  0.750000  0.692622  0.807378  1.0
  Ba  Ba2  1  0.250000  0.307378  0.192622  1.0
  Zn  Zn3  1  0.577563  0.262308  0.582565  1.0
  Zn  Zn4  1  0.422437  0.737692  0.417435  1.0
  Zn  Zn5  1  0.077563  0.082565  0.762308  1.0
  Zn  Zn6  1  0.922437  0.917435  0.237692  1.0
