# generated using pymatgen
data_Be22W
_symmetry_space_group_name_H-M   'P 1'
_cell_length_a   8.17719854
_cell_length_b   8.17719855
_cell_length_c   8.17719855
_cell_angle_alpha   60.00000004
_cell_angle_beta   60.00000001
_cell_angle_gamma   60.00000003
_symmetry_Int_Tables_number   1
_chemical_formula_structural   Be22W
_chemical_formula_sum   'Be44 W2'
_cell_volume   386.63274314
_cell_formula_units_Z   2
loop_
 _symmetry_equiv_pos_site_id
 _symmetry_equiv_pos_as_xyz
  1  'x, y, z'
loop_
 _atom_site_type_symbol
 _atom_site_label
 _atom_site_symmetry_multiplicity
 _atom_site_fract_x
 _atom_site_fract_y
 _atom_site_fract_z
 _atom_site_occupancy
  Be  Be1  1  0.000000  0.000000  0.000000  1.0
  Be  Be2  1  0.000000  0.000000  0.500000  1.0
  Be  Be3  1  0.500000  0.000000  0.000000  1.0
  Be  Be4  1  0.000000  0.500000  0.000000  1.0
  Be  Be5  1  0.500000  0.500000  0.500000  1.0
  Be  Be6  1  0.500000  0.500000  0.000000  1.0
  Be  Be7  1  0.000000  0.500000  0.500000  1.0
  Be  Be8  1  0.500000  0.000000  0.500000  1.0
  Be  Be9  1  0.740024  0.009976  0.009976  1.0
  Be  Be10  1  0.990024  0.990024  0.259976  1.0
  Be  Be11  1  0.259976  0.259976  0.990024  1.0
  Be  Be12  1  0.990024  0.259976  0.259976  1.0
  Be  Be13  1  0.990024  0.259976  0.990024  1.0
  Be  Be14  1  0.259976  0.990024  0.259976  1.0
  Be  Be15  1  0.009976  0.740024  0.009976  1.0
  Be  Be16  1  0.009976  0.009976  0.740024  1.0
  Be  Be17  1  0.740024  0.740024  0.009976  1.0
  Be  Be18  1  0.740024  0.009976  0.740024  1.0
  Be  Be19  1  0.259976  0.990024  0.990024  1.0
  Be  Be20  1  0.009976  0.740024  0.740024  1.0
  Be  Be21  1  0.175825  0.175825  0.704672  1.0
  Be  Be22  1  0.824175  0.295328  0.556322  1.0
  Be  Be23  1  0.556322  0.824175  0.824175  1.0
  Be  Be24  1  0.824175  0.556322  0.824175  1.0
  Be  Be25  1  0.295328  0.824175  0.556322  1.0
  Be  Be26  1  0.295328  0.556322  0.824175  1.0
  Be  Be27  1  0.556322  0.295328  0.824175  1.0
  Be  Be28  1  0.704672  0.175825  0.175825  1.0
  Be  Be29  1  0.175825  0.704672  0.175825  1.0
  Be  Be30  1  0.443678  0.175825  0.704672  1.0
  Be  Be31  1  0.175825  0.443678  0.704672  1.0
  Be  Be32  1  0.443678  0.175825  0.175825  1.0
  Be  Be33  1  0.704672  0.175825  0.443678  1.0
  Be  Be34  1  0.175825  0.704672  0.443678  1.0
  Be  Be35  1  0.175825  0.443678  0.175825  1.0
  Be  Be36  1  0.556322  0.824175  0.295328  1.0
  Be  Be37  1  0.824175  0.556322  0.295328  1.0
  Be  Be38  1  0.824175  0.824175  0.556322  1.0
  Be  Be39  1  0.824175  0.824175  0.295328  1.0
  Be  Be40  1  0.295328  0.824175  0.824175  1.0
  Be  Be41  1  0.824175  0.295328  0.824175  1.0
  Be  Be42  1  0.704672  0.443678  0.175825  1.0
  Be  Be43  1  0.443678  0.704672  0.175825  1.0
  Be  Be44  1  0.175825  0.175825  0.443678  1.0
  W  W45  1  0.375000  0.375000  0.375000  1.0
  W  W46  1  0.625000  0.625000  0.625000  1.0
