# generated using pymatgen
data_Cd2As3I
_symmetry_space_group_name_H-M   'P 1'
_cell_length_a   6.51451328
_cell_length_b   6.51451328
_cell_length_c   8.16463232
_cell_angle_alpha   97.00865975
_cell_angle_beta   97.00865980
_cell_angle_gamma   97.33774261
_symmetry_Int_Tables_number   1
_chemical_formula_structural   Cd2As3I
_chemical_formula_sum   'Cd4 As6 I2'
_cell_volume   337.74347344
_cell_formula_units_Z   2
loop_
 _symmetry_equiv_pos_site_id
 _symmetry_equiv_pos_as_xyz
  1  'x, y, z'
loop_
 _atom_site_type_symbol
 _atom_site_label
 _atom_site_symmetry_multiplicity
 _atom_site_fract_x
 _atom_site_fract_y
 _atom_site_fract_z
 _atom_site_occupancy
  Cd  Cd1  1  0.854397  0.144368  0.000864  1.0
  Cd  Cd2  1  0.367237  0.655165  0.920702  1.0
  Cd  Cd3  1  0.144368  0.854397  0.500864  1.0
  Cd  Cd4  1  0.655165  0.367237  0.420702  1.0
  As  As5  1  0.679527  0.584158  0.741547  1.0
  As  As6  1  0.584158  0.679527  0.241547  1.0
  As  As7  1  0.547027  0.965170  0.461707  1.0
  As  As8  1  0.965170  0.547027  0.961707  1.0
  As  As9  1  0.832569  0.926785  0.681319  1.0
  As  As10  1  0.926785  0.832569  0.181319  1.0
  I  I11  1  0.128766  0.383229  0.465161  1.0
  I  I12  1  0.383229  0.128766  0.965161  1.0
