# generated using pymatgen
data_SrUO4
_symmetry_space_group_name_H-M   'P 1'
_cell_length_a   6.65848359
_cell_length_b   6.65848370
_cell_length_c   6.65848373
_cell_angle_alpha   34.47035792
_cell_angle_beta   34.47036113
_cell_angle_gamma   34.47036081
_symmetry_Int_Tables_number   1
_chemical_formula_structural   SrUO4
_chemical_formula_sum   'Sr1 U1 O4'
_cell_volume   84.35892327
_cell_formula_units_Z   1
loop_
 _symmetry_equiv_pos_site_id
 _symmetry_equiv_pos_as_xyz
  1  'x, y, z'
loop_
 _atom_site_type_symbol
 _atom_site_label
 _atom_site_symmetry_multiplicity
 _atom_site_fract_x
 _atom_site_fract_y
 _atom_site_fract_z
 _atom_site_occupancy
  Sr  Sr1  1  0.500000  0.500000  0.500000  1.0
  U  U2  1  0.000000  0.000000  0.000000  1.0
  O  O3  1  0.106093  0.106093  0.106093  1.0
  O  O4  1  0.359041  0.359041  0.359041  1.0
  O  O5  1  0.640959  0.640959  0.640959  1.0
  O  O6  1  0.893907  0.893907  0.893907  1.0
