# generated using pymatgen
data_Al2Fe3Si4
_symmetry_space_group_name_H-M   'P 1'
_cell_length_a   3.64971203
_cell_length_b   6.37445594
_cell_length_c   10.08008829
_cell_angle_alpha   90.00000000
_cell_angle_beta   90.00000000
_cell_angle_gamma   106.63515755
_symmetry_Int_Tables_number   1
_chemical_formula_structural   Al2Fe3Si4
_chemical_formula_sum   'Al4 Fe6 Si8'
_cell_volume   224.69750199
_cell_formula_units_Z   2
loop_
 _symmetry_equiv_pos_site_id
 _symmetry_equiv_pos_as_xyz
  1  'x, y, z'
loop_
 _atom_site_type_symbol
 _atom_site_label
 _atom_site_symmetry_multiplicity
 _atom_site_fract_x
 _atom_site_fract_y
 _atom_site_fract_z
 _atom_site_occupancy
  Al  Al1  1  0.057518  0.115036  0.890882  1.0
  Al  Al2  1  0.942482  0.884964  0.109118  1.0
  Al  Al3  1  0.057518  0.115036  0.609118  1.0
  Al  Al4  1  0.942482  0.884964  0.390882  1.0
  Fe  Fe5  1  0.149350  0.298700  0.374763  1.0
  Fe  Fe6  1  0.850650  0.701300  0.625237  1.0
  Fe  Fe7  1  0.149350  0.298700  0.125237  1.0
  Fe  Fe8  1  0.850650  0.701300  0.874763  1.0
  Fe  Fe9  1  0.352286  0.704572  0.250000  1.0
  Fe  Fe10  1  0.647714  0.295428  0.750000  1.0
  Si  Si11  1  0.319440  0.638880  0.486438  1.0
  Si  Si12  1  0.680560  0.361120  0.513562  1.0
  Si  Si13  1  0.319440  0.638880  0.013562  1.0
  Si  Si14  1  0.680560  0.361120  0.986438  1.0
  Si  Si15  1  0.545091  0.090183  0.250000  1.0
  Si  Si16  1  0.454909  0.909817  0.750000  1.0
  Si  Si17  1  0.740031  0.480062  0.250000  1.0
  Si  Si18  1  0.259969  0.519938  0.750000  1.0
