# generated using pymatgen
data_AgCNO
_symmetry_space_group_name_H-M   'P 1'
_cell_length_a   3.63504777
_cell_length_b   5.86397461
_cell_length_c   6.63436985
_cell_angle_alpha   90.00000000
_cell_angle_beta   90.00000000
_cell_angle_gamma   86.32681676
_symmetry_Int_Tables_number   1
_chemical_formula_structural   AgCNO
_chemical_formula_sum   'Ag2 C2 N2 O2'
_cell_volume   141.12657416
_cell_formula_units_Z   2
loop_
 _symmetry_equiv_pos_site_id
 _symmetry_equiv_pos_as_xyz
  1  'x, y, z'
loop_
 _atom_site_type_symbol
 _atom_site_label
 _atom_site_symmetry_multiplicity
 _atom_site_fract_x
 _atom_site_fract_y
 _atom_site_fract_z
 _atom_site_occupancy
  Ag  Ag1  1  0.000000  0.000000  0.500000  1.0
  Ag  Ag2  1  0.000000  0.000000  0.000000  1.0
  C  C3  1  0.295365  0.599285  0.250000  1.0
  C  C4  1  0.704635  0.400715  0.750000  1.0
  N  N5  1  0.841852  0.206377  0.750000  1.0
  N  N6  1  0.158148  0.793623  0.250000  1.0
  O  O7  1  0.568695  0.591828  0.750000  1.0
  O  O8  1  0.431305  0.408172  0.250000  1.0
