# generated using pymatgen
data_LiLa2HO3
_symmetry_space_group_name_H-M   'P 1'
_cell_length_a   3.58169562
_cell_length_b   3.79839470
_cell_length_c   6.97238008
_cell_angle_alpha   105.80657807
_cell_angle_beta   104.88316587
_cell_angle_gamma   90.00000004
_symmetry_Int_Tables_number   1
_chemical_formula_structural   LiLa2HO3
_chemical_formula_sum   'Li1 La2 H1 O3'
_cell_volume   87.95825684
_cell_formula_units_Z   1
loop_
 _symmetry_equiv_pos_site_id
 _symmetry_equiv_pos_as_xyz
  1  'x, y, z'
loop_
 _atom_site_type_symbol
 _atom_site_label
 _atom_site_symmetry_multiplicity
 _atom_site_fract_x
 _atom_site_fract_y
 _atom_site_fract_z
 _atom_site_occupancy
  Li  Li1  1  0.000000  0.000000  0.000000  1.0
  La  La2  1  0.363446  0.363442  0.726892  1.0
  La  La3  1  0.636554  0.636558  0.273108  1.0
  H  H4  1  0.500000  0.000000  0.000000  1.0
  O  O5  1  0.000000  0.500000  0.000000  1.0
  O  O6  1  0.822774  0.822813  0.645547  1.0
  O  O7  1  0.177226  0.177187  0.354453  1.0
