# generated using pymatgen
data_LiNd2HO3
_symmetry_space_group_name_H-M   'P 1'
_cell_length_a   3.50472584
_cell_length_b   3.71636997
_cell_length_c   6.84749808
_cell_angle_alpha   105.75033309
_cell_angle_beta   104.82768410
_cell_angle_gamma   89.99999999
_symmetry_Int_Tables_number   1
_chemical_formula_structural   LiNd2HO3
_chemical_formula_sum   'Li1 Nd2 H1 O3'
_cell_volume   82.74895348
_cell_formula_units_Z   1
loop_
 _symmetry_equiv_pos_site_id
 _symmetry_equiv_pos_as_xyz
  1  'x, y, z'
loop_
 _atom_site_type_symbol
 _atom_site_label
 _atom_site_symmetry_multiplicity
 _atom_site_fract_x
 _atom_site_fract_y
 _atom_site_fract_z
 _atom_site_occupancy
  Li  Li1  1  0.000000  0.000000  0.000000  1.0
  Nd  Nd2  1  0.364045  0.364023  0.728089  1.0
  Nd  Nd3  1  0.635955  0.635977  0.271911  1.0
  H  H4  1  0.500000  0.000000  0.000000  1.0
  O  O5  1  0.000000  0.500000  0.000000  1.0
  O  O6  1  0.823516  0.823518  0.647031  1.0
  O  O7  1  0.176484  0.176482  0.352969  1.0
