# generated using pymatgen
data_La2CuO4
_symmetry_space_group_name_H-M   'P 1'
_cell_length_a   5.35630431
_cell_length_b   5.54339192
_cell_length_c   7.07448531
_cell_angle_alpha   90.00000000
_cell_angle_beta   112.15905922
_cell_angle_gamma   90.00000000
_symmetry_Int_Tables_number   1
_chemical_formula_structural   La2CuO4
_chemical_formula_sum   'La4 Cu2 O8'
_cell_volume   194.54159638
_cell_formula_units_Z   2
loop_
 _symmetry_equiv_pos_site_id
 _symmetry_equiv_pos_as_xyz
  1  'x, y, z'
loop_
 _atom_site_type_symbol
 _atom_site_label
 _atom_site_symmetry_multiplicity
 _atom_site_fract_x
 _atom_site_fract_y
 _atom_site_fract_z
 _atom_site_occupancy
  La  La1  1  0.638132  0.014654  0.277977  1.0
  La  La2  1  0.361868  0.985346  0.722023  1.0
  La  La3  1  0.138132  0.485346  0.277977  1.0
  La  La4  1  0.861868  0.514654  0.722023  1.0
  Cu  Cu5  1  0.000000  0.000000  0.000000  1.0
  Cu  Cu6  1  0.500000  0.500000  0.000000  1.0
  O  O7  1  0.238644  0.250171  0.977533  1.0
  O  O8  1  0.187568  0.059789  0.373561  1.0
  O  O9  1  0.312432  0.559789  0.626439  1.0
  O  O10  1  0.261356  0.750171  0.022467  1.0
  O  O11  1  0.738644  0.249829  0.977533  1.0
  O  O12  1  0.687568  0.440211  0.373561  1.0
  O  O13  1  0.812432  0.940211  0.626439  1.0
  O  O14  1  0.761356  0.749829  0.022467  1.0
