# generated using pymatgen
data_HfCu2Te3
_symmetry_space_group_name_H-M   'P 1'
_cell_length_a   4.08007969
_cell_length_b   7.32530295
_cell_length_c   10.41967822
_cell_angle_alpha   98.30326192
_cell_angle_beta   101.29071448
_cell_angle_gamma   90.00000003
_symmetry_Int_Tables_number   1
_chemical_formula_structural   HfCu2Te3
_chemical_formula_sum   'Hf2 Cu4 Te6'
_cell_volume   302.06475591
_cell_formula_units_Z   2
loop_
 _symmetry_equiv_pos_site_id
 _symmetry_equiv_pos_as_xyz
  1  'x, y, z'
loop_
 _atom_site_type_symbol
 _atom_site_label
 _atom_site_symmetry_multiplicity
 _atom_site_fract_x
 _atom_site_fract_y
 _atom_site_fract_z
 _atom_site_occupancy
  Hf  Hf1  1  0.645952  0.054529  0.291905  1.0
  Hf  Hf2  1  0.354048  0.945471  0.708095  1.0
  Cu  Cu3  1  0.713414  0.425826  0.426829  1.0
  Cu  Cu4  1  0.286586  0.574174  0.573171  1.0
  Cu  Cu5  1  0.048777  0.149365  0.097554  1.0
  Cu  Cu6  1  0.951223  0.850635  0.902446  1.0
  Te  Te7  1  0.750576  0.785538  0.501151  1.0
  Te  Te8  1  0.918612  0.179906  0.837224  1.0
  Te  Te9  1  0.583620  0.364817  0.167241  1.0
  Te  Te10  1  0.249424  0.214462  0.498849  1.0
  Te  Te11  1  0.416380  0.635183  0.832759  1.0
  Te  Te12  1  0.081388  0.820094  0.162776  1.0
