# generated using pymatgen
data_NdFeSi
_symmetry_space_group_name_H-M   'P 1'
_cell_length_a   4.06193146
_cell_length_b   4.06193146
_cell_length_c   6.99041210
_cell_angle_alpha   90.00000000
_cell_angle_beta   90.00000000
_cell_angle_gamma   90.00000000
_symmetry_Int_Tables_number   1
_chemical_formula_structural   NdFeSi
_chemical_formula_sum   'Nd2 Fe2 Si2'
_cell_volume   115.33681678
_cell_formula_units_Z   2
loop_
 _symmetry_equiv_pos_site_id
 _symmetry_equiv_pos_as_xyz
  1  'x, y, z'
loop_
 _atom_site_type_symbol
 _atom_site_label
 _atom_site_symmetry_multiplicity
 _atom_site_fract_x
 _atom_site_fract_y
 _atom_site_fract_z
 _atom_site_occupancy
  Nd  Nd1  1  0.250000  0.250000  0.686332  1.0
  Nd  Nd2  1  0.750000  0.750000  0.313668  1.0
  Fe  Fe3  1  0.750000  0.250000  0.000000  1.0
  Fe  Fe4  1  0.250000  0.750000  0.000000  1.0
  Si  Si5  1  0.750000  0.750000  0.838555  1.0
  Si  Si6  1  0.250000  0.250000  0.161445  1.0
