# generated using pymatgen
data_OsCl2O
_symmetry_space_group_name_H-M   'P 1'
_cell_length_a   3.63073230
_cell_length_b   3.72234402
_cell_length_c   6.85112100
_cell_angle_alpha   105.79430617
_cell_angle_beta   105.36538378
_cell_angle_gamma   89.99999996
_symmetry_Int_Tables_number   1
_chemical_formula_structural   OsCl2O
_chemical_formula_sum   'Os1 Cl2 O1'
_cell_volume   85.65136510
_cell_formula_units_Z   1
loop_
 _symmetry_equiv_pos_site_id
 _symmetry_equiv_pos_as_xyz
  1  'x, y, z'
loop_
 _atom_site_type_symbol
 _atom_site_label
 _atom_site_symmetry_multiplicity
 _atom_site_fract_x
 _atom_site_fract_y
 _atom_site_fract_z
 _atom_site_occupancy
  Os  Os1  1  0.000000  0.000000  0.000000  1.0
  Cl  Cl2  1  0.375011  0.874807  0.750022  1.0
  Cl  Cl3  1  0.624989  0.125193  0.249978  1.0
  O  O4  1  0.000000  0.500000  0.000000  1.0
