# generated using pymatgen
data_MgCd
_symmetry_space_group_name_H-M   'P 1'
_cell_length_a   3.26038959
_cell_length_b   8.19328632
_cell_length_c   4.97684015
_cell_angle_alpha   90.00000000
_cell_angle_beta   90.00000000
_cell_angle_gamma   78.52343656
_symmetry_Int_Tables_number   1
_chemical_formula_structural   MgCd
_chemical_formula_sum   'Mg3 Cd3'
_cell_volume   130.28971467
_cell_formula_units_Z   3
loop_
 _symmetry_equiv_pos_site_id
 _symmetry_equiv_pos_as_xyz
  1  'x, y, z'
loop_
 _atom_site_type_symbol
 _atom_site_label
 _atom_site_symmetry_multiplicity
 _atom_site_fract_x
 _atom_site_fract_y
 _atom_site_fract_z
 _atom_site_occupancy
  Mg  Mg1  1  0.994841  0.010320  0.000000  1.0
  Mg  Mg2  1  0.665110  0.669782  0.000000  1.0
  Mg  Mg3  1  0.782520  0.434962  0.500000  1.0
  Cd  Cd4  1  0.330095  0.339812  0.000000  1.0
  Cd  Cd5  1  0.446112  0.107777  0.500000  1.0
  Cd  Cd6  1  0.114660  0.770681  0.500000  1.0
