# generated using pymatgen
data_Na3VO4
_symmetry_space_group_name_H-M   'P 1'
_cell_length_a   7.18361117
_cell_length_b   6.15170907
_cell_length_c   5.60286425
_cell_angle_alpha   90.00009395
_cell_angle_beta   90.00000000
_cell_angle_gamma   90.00000000
_symmetry_Int_Tables_number   1
_chemical_formula_structural   Na3VO4
_chemical_formula_sum   'Na6 V2 O8'
_cell_volume   247.59889701
_cell_formula_units_Z   2
loop_
 _symmetry_equiv_pos_site_id
 _symmetry_equiv_pos_as_xyz
  1  'x, y, z'
loop_
 _atom_site_type_symbol
 _atom_site_label
 _atom_site_symmetry_multiplicity
 _atom_site_fract_x
 _atom_site_fract_y
 _atom_site_fract_z
 _atom_site_occupancy
  Na  Na1  1  0.000000  0.158494  0.487466  1.0
  Na  Na2  1  0.246070  0.326408  0.988867  1.0
  Na  Na3  1  0.253932  0.673587  0.488866  1.0
  Na  Na4  1  0.500000  0.841520  0.987468  1.0
  Na  Na5  1  0.746068  0.673587  0.488866  1.0
  Na  Na6  1  0.753930  0.326408  0.988867  1.0
  V  V7  1  0.000000  0.826733  0.001066  1.0
  V  V8  1  0.500000  0.173261  0.501069  1.0
  O  O9  1  0.000000  0.097608  0.903928  1.0
  O  O10  1  0.000000  0.822283  0.311572  1.0
  O  O11  1  0.201383  0.692388  0.901483  1.0
  O  O12  1  0.298617  0.307609  0.401482  1.0
  O  O13  1  0.500000  0.177721  0.811572  1.0
  O  O14  1  0.500000  0.902394  0.403934  1.0
  O  O15  1  0.701383  0.307609  0.401482  1.0
  O  O16  1  0.798617  0.692388  0.901483  1.0
