# generated using pymatgen
data_Cu(AsO2)2
_symmetry_space_group_name_H-M   'P 1'
_cell_length_a   5.64085794
_cell_length_b   8.88918257
_cell_length_c   8.88918257
_cell_angle_alpha   90.00000000
_cell_angle_beta   90.00000000
_cell_angle_gamma   90.00000000
_symmetry_Int_Tables_number   1
_chemical_formula_structural   Cu(AsO2)2
_chemical_formula_sum   'Cu4 As8 O16'
_cell_volume   445.72686887
_cell_formula_units_Z   4
loop_
 _symmetry_equiv_pos_site_id
 _symmetry_equiv_pos_as_xyz
  1  'x, y, z'
loop_
 _atom_site_type_symbol
 _atom_site_label
 _atom_site_symmetry_multiplicity
 _atom_site_fract_x
 _atom_site_fract_y
 _atom_site_fract_z
 _atom_site_occupancy
  Cu  Cu1  1  0.250000  0.000000  0.500000  1.0
  Cu  Cu2  1  0.750000  0.500000  0.000000  1.0
  Cu  Cu3  1  0.750000  0.000000  0.500000  1.0
  Cu  Cu4  1  0.250000  0.500000  0.000000  1.0
  As  As5  1  0.000000  0.792401  0.842606  1.0
  As  As6  1  0.500000  0.157394  0.792401  1.0
  As  As7  1  0.500000  0.842606  0.207599  1.0
  As  As8  1  0.000000  0.207599  0.157394  1.0
  As  As9  1  0.000000  0.707599  0.342606  1.0
  As  As10  1  0.000000  0.292401  0.657394  1.0
  As  As11  1  0.500000  0.657394  0.707599  1.0
  As  As12  1  0.500000  0.342606  0.292401  1.0
  O  O13  1  0.500000  0.878397  0.407600  1.0
  O  O14  1  0.500000  0.121603  0.592400  1.0
  O  O15  1  0.000000  0.407600  0.121603  1.0
  O  O16  1  0.000000  0.592400  0.878397  1.0
  O  O17  1  0.000000  0.907600  0.378397  1.0
  O  O18  1  0.500000  0.621603  0.907600  1.0
  O  O19  1  0.500000  0.378397  0.092400  1.0
  O  O20  1  0.000000  0.092400  0.621603  1.0
  O  O21  1  0.750000  0.707516  0.207516  1.0
  O  O22  1  0.250000  0.792484  0.707516  1.0
  O  O23  1  0.250000  0.207516  0.292484  1.0
  O  O24  1  0.750000  0.292484  0.792484  1.0
  O  O25  1  0.250000  0.707516  0.207516  1.0
  O  O26  1  0.750000  0.792484  0.707516  1.0
  O  O27  1  0.750000  0.207516  0.292484  1.0
  O  O28  1  0.250000  0.292484  0.792484  1.0
