# generated using pymatgen
data_NiBr2
_symmetry_space_group_name_H-M   'P 1'
_cell_length_a   6.58886914
_cell_length_b   6.58886917
_cell_length_c   6.58886877
_cell_angle_alpha   32.38840428
_cell_angle_beta   32.38840376
_cell_angle_gamma   32.38840369
_symmetry_Int_Tables_number   1
_chemical_formula_structural   NiBr2
_chemical_formula_sum   'Ni1 Br2'
_cell_volume   72.96689378
_cell_formula_units_Z   1
loop_
 _symmetry_equiv_pos_site_id
 _symmetry_equiv_pos_as_xyz
  1  'x, y, z'
loop_
 _atom_site_type_symbol
 _atom_site_label
 _atom_site_symmetry_multiplicity
 _atom_site_fract_x
 _atom_site_fract_y
 _atom_site_fract_z
 _atom_site_occupancy
  Ni  Ni1  1  0.000000  0.000000  0.000000  1.0
  Br  Br2  1  0.258440  0.258440  0.258440  1.0
  Br  Br3  1  0.741560  0.741560  0.741560  1.0
