# generated using pymatgen
data_Nd5AgSe8
_symmetry_space_group_name_H-M   'P 1'
_cell_length_a   7.74477528
_cell_length_b   7.74477547
_cell_length_c   7.74477512
_cell_angle_alpha   109.81549472
_cell_angle_beta   109.81549214
_cell_angle_gamma   108.78484238
_symmetry_Int_Tables_number   1
_chemical_formula_structural   Nd5AgSe8
_chemical_formula_sum   'Nd5 Ag1 Se8'
_cell_volume   357.56740512
_cell_formula_units_Z   1
loop_
 _symmetry_equiv_pos_site_id
 _symmetry_equiv_pos_as_xyz
  1  'x, y, z'
loop_
 _atom_site_type_symbol
 _atom_site_label
 _atom_site_symmetry_multiplicity
 _atom_site_fract_x
 _atom_site_fract_y
 _atom_site_fract_z
 _atom_site_occupancy
  Nd  Nd1  1  0.114985  0.747284  0.871809  1.0
  Nd  Nd2  1  0.252716  0.624525  0.367701  1.0
  Nd  Nd3  1  0.375475  0.243176  0.628191  1.0
  Nd  Nd4  1  0.625000  0.375000  0.250000  1.0
  Nd  Nd5  1  0.756824  0.885015  0.132299  1.0
  Ag  Ag6  1  0.875000  0.125000  0.750000  1.0
  Se  Se7  1  0.992514  0.850921  0.500636  1.0
  Se  Se8  1  0.006768  0.361119  0.493046  1.0
  Se  Se9  1  0.486278  0.993232  0.854351  1.0
  Se  Se10  1  0.149079  0.149715  0.141593  1.0
  Se  Se11  1  0.368073  0.513722  0.006954  1.0
  Se  Se12  1  0.638881  0.631927  0.645649  1.0
  Se  Se13  1  0.508122  0.007486  0.358407  1.0
  Se  Se14  1  0.850285  0.491878  0.999364  1.0
