# generated using pymatgen
data_SmPd
_symmetry_space_group_name_H-M   'P 1'
_cell_length_a   3.80519410
_cell_length_b   4.64635822
_cell_length_c   5.72337281
_cell_angle_alpha   90.00000000
_cell_angle_beta   109.41608085
_cell_angle_gamma   90.00000000
_symmetry_Int_Tables_number   1
_chemical_formula_structural   SmPd
_chemical_formula_sum   'Sm2 Pd2'
_cell_volume   95.43613025
_cell_formula_units_Z   2
loop_
 _symmetry_equiv_pos_site_id
 _symmetry_equiv_pos_as_xyz
  1  'x, y, z'
loop_
 _atom_site_type_symbol
 _atom_site_label
 _atom_site_symmetry_multiplicity
 _atom_site_fract_x
 _atom_site_fract_y
 _atom_site_fract_z
 _atom_site_occupancy
  Sm  Sm1  1  0.137115  0.750000  0.274230  1.0
  Sm  Sm2  1  0.862885  0.250000  0.725770  1.0
  Pd  Pd3  1  0.414083  0.750000  0.828166  1.0
  Pd  Pd4  1  0.585917  0.250000  0.171834  1.0
