# generated using pymatgen
data_Li(NiO2)2
_symmetry_space_group_name_H-M   'P 1'
_cell_length_a   2.83450247
_cell_length_b   5.74718797
_cell_length_c   6.57933120
_cell_angle_alpha   48.40723445
_cell_angle_beta   117.68421487
_cell_angle_gamma   121.84758098
_symmetry_Int_Tables_number   1
_chemical_formula_structural   Li(NiO2)2
_chemical_formula_sum   'Li1 Ni2 O4'
_cell_volume   66.97911417
_cell_formula_units_Z   1
loop_
 _symmetry_equiv_pos_site_id
 _symmetry_equiv_pos_as_xyz
  1  'x, y, z'
loop_
 _atom_site_type_symbol
 _atom_site_label
 _atom_site_symmetry_multiplicity
 _atom_site_fract_x
 _atom_site_fract_y
 _atom_site_fract_z
 _atom_site_occupancy
  Li  Li1  1  0.500000  0.500000  0.500000  1.0
  Ni  Ni2  1  0.000000  0.500000  0.000000  1.0
  Ni  Ni3  1  0.000000  0.000000  0.000000  1.0
  O  O4  1  0.263673  0.977538  0.801285  1.0
  O  O5  1  0.278844  0.458483  0.786992  1.0
  O  O6  1  0.721156  0.541517  0.213008  1.0
  O  O7  1  0.736327  0.022462  0.198715  1.0
