# generated using pymatgen
data_Zr2CoP
_symmetry_space_group_name_H-M   'P 1'
_cell_length_a   3.66048961
_cell_length_b   5.27249209
_cell_length_c   7.46636634
_cell_angle_alpha   111.11739919
_cell_angle_beta   90.00000000
_cell_angle_gamma   90.00000000
_symmetry_Int_Tables_number   1
_chemical_formula_structural   Zr2CoP
_chemical_formula_sum   'Zr4 Co2 P2'
_cell_volume   134.42297789
_cell_formula_units_Z   2
loop_
 _symmetry_equiv_pos_site_id
 _symmetry_equiv_pos_as_xyz
  1  'x, y, z'
loop_
 _atom_site_type_symbol
 _atom_site_label
 _atom_site_symmetry_multiplicity
 _atom_site_fract_x
 _atom_site_fract_y
 _atom_site_fract_z
 _atom_site_occupancy
  Zr  Zr1  1  0.250000  0.789618  0.564216  1.0
  Zr  Zr2  1  0.750000  0.210382  0.435784  1.0
  Zr  Zr3  1  0.250000  0.788235  0.080557  1.0
  Zr  Zr4  1  0.750000  0.211765  0.919443  1.0
  Co  Co5  1  0.250000  0.356946  0.710589  1.0
  Co  Co6  1  0.750000  0.643054  0.289411  1.0
  P  P7  1  0.250000  0.353071  0.211299  1.0
  P  P8  1  0.750000  0.646929  0.788701  1.0
