# generated using pymatgen
data_Zr2NiP
_symmetry_space_group_name_H-M   'P 1'
_cell_length_a   3.64904147
_cell_length_b   5.26774908
_cell_length_c   7.51718501
_cell_angle_alpha   110.81949425
_cell_angle_beta   90.00000000
_cell_angle_gamma   90.00000000
_symmetry_Int_Tables_number   1
_chemical_formula_structural   Zr2NiP
_chemical_formula_sum   'Zr4 Ni2 P2'
_cell_volume   135.06212905
_cell_formula_units_Z   2
loop_
 _symmetry_equiv_pos_site_id
 _symmetry_equiv_pos_as_xyz
  1  'x, y, z'
loop_
 _atom_site_type_symbol
 _atom_site_label
 _atom_site_symmetry_multiplicity
 _atom_site_fract_x
 _atom_site_fract_y
 _atom_site_fract_z
 _atom_site_occupancy
  Zr  Zr1  1  0.750000  0.207792  0.925450  1.0
  Zr  Zr2  1  0.250000  0.792208  0.074550  1.0
  Zr  Zr3  1  0.750000  0.209121  0.429753  1.0
  Zr  Zr4  1  0.250000  0.790879  0.570247  1.0
  Ni  Ni5  1  0.750000  0.642810  0.289776  1.0
  Ni  Ni6  1  0.250000  0.357190  0.710224  1.0
  P  P7  1  0.750000  0.645187  0.787876  1.0
  P  P8  1  0.250000  0.354813  0.212124  1.0
