# generated using pymatgen
data_Ce2Y2O7
_symmetry_space_group_name_H-M   'P 1'
_cell_length_a   9.41691718
_cell_length_b   9.39212069
_cell_length_c   9.38404803
_cell_angle_alpha   109.33803737
_cell_angle_beta   109.32648638
_cell_angle_gamma   109.48554876
_symmetry_Int_Tables_number   1
_chemical_formula_structural   Ce2Y2O7
_chemical_formula_sum   'Ce8 Y8 O28'
_cell_volume   640.98039200
_cell_formula_units_Z   4
loop_
 _symmetry_equiv_pos_site_id
 _symmetry_equiv_pos_as_xyz
  1  'x, y, z'
loop_
 _atom_site_type_symbol
 _atom_site_label
 _atom_site_symmetry_multiplicity
 _atom_site_fract_x
 _atom_site_fract_y
 _atom_site_fract_z
 _atom_site_occupancy
  Ce  Ce1  1  0.006656  0.748210  0.773614  1.0
  Ce  Ce2  1  0.489035  0.244586  0.737309  1.0
  Ce  Ce3  1  0.524287  0.771114  0.270728  1.0
  Ce  Ce4  1  0.748191  0.748198  0.001057  1.0
  Ce  Ce5  1  0.721970  0.480635  0.232663  1.0
  Ce  Ce6  1  0.494091  0.995241  0.999038  1.0
  Ce  Ce7  1  0.756471  0.007266  0.749719  1.0
  Ce  Ce8  1  0.985888  0.258308  0.234570  1.0
  Y  Y9  1  0.250537  0.972800  0.255203  1.0
  Y  Y10  1  0.008836  0.008174  0.501000  1.0
  Y  Y11  1  0.977808  0.496013  0.999466  1.0
  Y  Y12  1  0.240884  0.222830  0.967642  1.0
  Y  Y13  1  0.266248  0.518635  0.741816  1.0
  Y  Y14  1  0.270725  0.743290  0.493185  1.0
  Y  Y15  1  0.523454  0.519944  0.518407  1.0
  Y  Y16  1  0.727525  0.255488  0.502848  1.0
  O  O17  1  0.003819  0.964212  0.721770  1.0
  O  O18  1  0.017592  0.486590  0.757563  1.0
  O  O19  1  0.025312  0.262231  0.007801  1.0
  O  O20  1  0.231402  0.968639  0.495681  1.0
  O  O21  1  0.238089  0.755741  0.734778  1.0
  O  O22  1  0.245821  0.008631  0.020987  1.0
  O  O23  1  0.240970  0.470675  0.476753  1.0
  O  O24  1  0.231476  0.268662  0.742857  1.0
  O  O25  1  0.257224  0.716659  0.226918  1.0
  O  O26  1  0.513361  0.512763  0.756269  1.0
  O  O27  1  0.490764  0.233079  0.986057  1.0
  O  O28  1  0.524220  0.763927  0.509785  1.0
  O  O29  1  0.476443  0.248448  0.482168  1.0
  O  O30  1  0.508168  0.998477  0.750220  1.0
  O  O31  1  0.762872  0.762677  0.767362  1.0
  O  O32  1  0.488234  0.737585  0.003123  1.0
  O  O33  1  0.464064  0.478741  0.224622  1.0
  O  O34  1  0.735859  0.249558  0.748972  1.0
  O  O35  1  0.770765  0.749932  0.271155  1.0
  O  O36  1  0.767874  0.523773  0.504622  1.0
  O  O37  1  0.746202  0.003273  0.999535  1.0
  O  O38  1  0.501010  0.996149  0.252662  1.0
  O  O39  1  0.755673  0.246372  0.260948  1.0
  O  O40  1  0.776799  0.031802  0.507763  1.0
  O  O41  1  0.730970  0.491111  0.995481  1.0
  O  O42  1  0.991821  0.745110  0.011400  1.0
  O  O43  1  0.986499  0.517069  0.265611  1.0
  O  O44  1  0.024088  0.053585  0.275072  1.0
