# generated using pymatgen
data_Ba(FeS2)2
_symmetry_space_group_name_H-M   'P 1'
_cell_length_a   5.08585765
_cell_length_b   5.97786828
_cell_length_c   5.97786829
_cell_angle_alpha   79.57448445
_cell_angle_beta   64.82461197
_cell_angle_gamma   64.82461201
_symmetry_Int_Tables_number   1
_chemical_formula_structural   Ba(FeS2)2
_chemical_formula_sum   'Ba1 Fe2 S4'
_cell_volume   148.85502909
_cell_formula_units_Z   1
loop_
 _symmetry_equiv_pos_site_id
 _symmetry_equiv_pos_as_xyz
  1  'x, y, z'
loop_
 _atom_site_type_symbol
 _atom_site_label
 _atom_site_symmetry_multiplicity
 _atom_site_fract_x
 _atom_site_fract_y
 _atom_site_fract_z
 _atom_site_occupancy
  Ba  Ba1  1  0.000000  0.000000  0.000000  1.0
  Fe  Fe2  1  0.750000  0.500000  0.500000  1.0
  Fe  Fe3  1  0.250000  0.500000  0.500000  1.0
  S  S4  1  0.386036  0.420662  0.807266  1.0
  S  S5  1  0.193302  0.192734  0.420662  1.0
  S  S6  1  0.806698  0.807266  0.579338  1.0
  S  S7  1  0.613964  0.579338  0.192734  1.0
