# generated using pymatgen
data_Sm2GeRh3
_symmetry_space_group_name_H-M   'P 1'
_cell_length_a   5.17698231
_cell_length_b   5.17698232
_cell_length_c   5.17698231
_cell_angle_alpha   66.40802285
_cell_angle_beta   66.40802280
_cell_angle_gamma   66.40802282
_symmetry_Int_Tables_number   1
_chemical_formula_structural   Sm2GeRh3
_chemical_formula_sum   'Sm2 Ge1 Rh3'
_cell_volume   111.66344047
_cell_formula_units_Z   1
loop_
 _symmetry_equiv_pos_site_id
 _symmetry_equiv_pos_as_xyz
  1  'x, y, z'
loop_
 _atom_site_type_symbol
 _atom_site_label
 _atom_site_symmetry_multiplicity
 _atom_site_fract_x
 _atom_site_fract_y
 _atom_site_fract_z
 _atom_site_occupancy
  Sm  Sm1  1  0.871309  0.871309  0.871309  1.0
  Sm  Sm2  1  0.128691  0.128691  0.128691  1.0
  Ge  Ge3  1  0.500000  0.500000  0.500000  1.0
  Rh  Rh4  1  0.500000  0.000000  0.500000  1.0
  Rh  Rh5  1  0.500000  0.500000  0.000000  1.0
  Rh  Rh6  1  0.000000  0.500000  0.500000  1.0
