# generated using pymatgen
data_KCuF3
_symmetry_space_group_name_H-M   'P 1'
_cell_length_a   5.75495772
_cell_length_b   5.75495772
_cell_length_c   5.75495772
_cell_angle_alpha   90.28056390
_cell_angle_beta   119.83814871
_cell_angle_gamma   119.83814875
_symmetry_Int_Tables_number   1
_chemical_formula_structural   KCuF3
_chemical_formula_sum   'K2 Cu2 F6'
_cell_volume   135.10360187
_cell_formula_units_Z   2
loop_
 _symmetry_equiv_pos_site_id
 _symmetry_equiv_pos_as_xyz
  1  'x, y, z'
loop_
 _atom_site_type_symbol
 _atom_site_label
 _atom_site_symmetry_multiplicity
 _atom_site_fract_x
 _atom_site_fract_y
 _atom_site_fract_z
 _atom_site_occupancy
  K  K1  1  0.000000  0.750000  0.750000  1.0
  K  K2  1  0.000000  0.250000  0.250000  1.0
  Cu  Cu3  1  0.500000  0.000000  0.500000  1.0
  Cu  Cu4  1  0.500000  0.500000  0.000000  1.0
  F  F5  1  0.013628  0.256814  0.756814  1.0
  F  F6  1  0.500000  0.756814  0.743186  1.0
  F  F7  1  0.500000  0.243186  0.256814  1.0
  F  F8  1  0.986372  0.743186  0.243186  1.0
  F  F9  1  0.500000  0.750000  0.250000  1.0
  F  F10  1  0.500000  0.250000  0.750000  1.0
