# generated using pymatgen
data_LaSi
_symmetry_space_group_name_H-M   'P 1'
_cell_length_a   4.56830701
_cell_length_b   6.66699836
_cell_length_c   7.08025612
_cell_angle_alpha   90.00000000
_cell_angle_beta   108.82076635
_cell_angle_gamma   90.00000000
_symmetry_Int_Tables_number   1
_chemical_formula_structural   LaSi
_chemical_formula_sum   'La4 Si4'
_cell_volume   204.11272537
_cell_formula_units_Z   4
loop_
 _symmetry_equiv_pos_site_id
 _symmetry_equiv_pos_as_xyz
  1  'x, y, z'
loop_
 _atom_site_type_symbol
 _atom_site_label
 _atom_site_symmetry_multiplicity
 _atom_site_fract_x
 _atom_site_fract_y
 _atom_site_fract_z
 _atom_site_occupancy
  La  La1  1  0.725878  0.750000  0.451755  1.0
  La  La2  1  0.274122  0.250000  0.548245  1.0
  La  La3  1  0.448237  0.750000  0.896473  1.0
  La  La4  1  0.551763  0.250000  0.103527  1.0
  Si  Si5  1  0.908636  0.062975  0.817274  1.0
  Si  Si6  1  0.091364  0.937025  0.182726  1.0
  Si  Si7  1  0.091364  0.562975  0.182726  1.0
  Si  Si8  1  0.908636  0.437025  0.817274  1.0
