# generated using pymatgen
data_Na2PtO2
_symmetry_space_group_name_H-M   'P 1'
_cell_length_a   3.18054233
_cell_length_b   4.63834497
_cell_length_c   5.56563692
_cell_angle_alpha   114.61417922
_cell_angle_beta   106.60250769
_cell_angle_gamma   89.99999996
_symmetry_Int_Tables_number   1
_chemical_formula_structural   Na2PtO2
_chemical_formula_sum   'Na2 Pt1 O2'
_cell_volume   70.86349675
_cell_formula_units_Z   1
loop_
 _symmetry_equiv_pos_site_id
 _symmetry_equiv_pos_as_xyz
  1  'x, y, z'
loop_
 _atom_site_type_symbol
 _atom_site_label
 _atom_site_symmetry_multiplicity
 _atom_site_fract_x
 _atom_site_fract_y
 _atom_site_fract_z
 _atom_site_occupancy
  Na  Na1  1  0.677483  0.677479  0.354965  1.0
  Na  Na2  1  0.322517  0.322521  0.645035  1.0
  Pt  Pt3  1  0.000000  0.000000  0.000000  1.0
  O  O4  1  0.361369  0.861362  0.722739  1.0
  O  O5  1  0.638631  0.138638  0.277261  1.0
