# generated using pymatgen
data_HfCoSn
_symmetry_space_group_name_H-M   'P 1'
_cell_length_a   7.11017740
_cell_length_b   7.11017741
_cell_length_c   7.16404481
_cell_angle_alpha   90.00000000
_cell_angle_beta   90.00000000
_cell_angle_gamma   119.99999998
_symmetry_Int_Tables_number   1
_chemical_formula_structural   HfCoSn
_chemical_formula_sum   'Hf6 Co6 Sn6'
_cell_volume   313.65325522
_cell_formula_units_Z   6
loop_
 _symmetry_equiv_pos_site_id
 _symmetry_equiv_pos_as_xyz
  1  'x, y, z'
loop_
 _atom_site_type_symbol
 _atom_site_label
 _atom_site_symmetry_multiplicity
 _atom_site_fract_x
 _atom_site_fract_y
 _atom_site_fract_z
 _atom_site_occupancy
  Hf  Hf1  1  0.007795  0.401513  0.750000  1.0
  Hf  Hf2  1  0.598487  0.606283  0.750000  1.0
  Hf  Hf3  1  0.393717  0.992205  0.750000  1.0
  Hf  Hf4  1  0.992205  0.393717  0.250000  1.0
  Hf  Hf5  1  0.606283  0.598487  0.250000  1.0
  Hf  Hf6  1  0.401513  0.007795  0.250000  1.0
  Co  Co7  1  0.333333  0.666667  0.466445  1.0
  Co  Co8  1  0.666667  0.333333  0.533555  1.0
  Co  Co9  1  0.333333  0.666667  0.033555  1.0
  Co  Co10  1  0.000000  0.000000  0.750000  1.0
  Co  Co11  1  0.000000  0.000000  0.250000  1.0
  Co  Co12  1  0.666667  0.333333  0.966445  1.0
  Sn  Sn13  1  0.267308  0.267308  0.500000  1.0
  Sn  Sn14  1  0.000000  0.732692  0.500000  1.0
  Sn  Sn15  1  0.000000  0.732692  0.000000  1.0
  Sn  Sn16  1  0.732692  0.000000  0.500000  1.0
  Sn  Sn17  1  0.732692  0.000000  0.000000  1.0
  Sn  Sn18  1  0.267308  0.267308  0.000000  1.0
