# generated using pymatgen
data_Tl4Te3Pb
_symmetry_space_group_name_H-M   'P 1'
_cell_length_a   8.99642327
_cell_length_b   8.99642327
_cell_length_c   9.27207836
_cell_angle_alpha   119.02133103
_cell_angle_beta   119.02133098
_cell_angle_gamma   90.00000003
_symmetry_Int_Tables_number   1
_chemical_formula_structural   Tl4Te3Pb
_chemical_formula_sum   'Tl8 Te6 Pb2'
_cell_volume   545.96240848
_cell_formula_units_Z   2
loop_
 _symmetry_equiv_pos_site_id
 _symmetry_equiv_pos_as_xyz
  1  'x, y, z'
loop_
 _atom_site_type_symbol
 _atom_site_label
 _atom_site_symmetry_multiplicity
 _atom_site_fract_x
 _atom_site_fract_y
 _atom_site_fract_z
 _atom_site_occupancy
  Tl  Tl1  1  0.010771  0.510771  0.315157  1.0
  Tl  Tl2  1  0.695614  0.195614  0.684843  1.0
  Tl  Tl3  1  0.304386  0.804386  0.315157  1.0
  Tl  Tl4  1  0.510771  0.304386  0.315157  1.0
  Tl  Tl5  1  0.804386  0.010771  0.315157  1.0
  Tl  Tl6  1  0.489229  0.695614  0.684843  1.0
  Tl  Tl7  1  0.195614  0.989229  0.684843  1.0
  Tl  Tl8  1  0.989229  0.489229  0.684843  1.0
  Te  Te9  1  0.835685  0.664315  0.000000  1.0
  Te  Te10  1  0.664315  0.164315  0.000000  1.0
  Te  Te11  1  0.250000  0.250000  0.500000  1.0
  Te  Te12  1  0.750000  0.750000  0.500000  1.0
  Te  Te13  1  0.335685  0.835685  0.000000  1.0
  Te  Te14  1  0.164315  0.335685  0.000000  1.0
  Pb  Pb15  1  0.500000  0.500000  0.000000  1.0
  Pb  Pb16  1  0.000000  0.000000  0.000000  1.0
