# generated using pymatgen
data_Mg5Si6
_symmetry_space_group_name_H-M   'P 1'
_cell_length_a   3.93851648
_cell_length_b   6.57095899
_cell_length_c   8.18693518
_cell_angle_alpha   102.94359608
_cell_angle_beta   103.91821641
_cell_angle_gamma   90.00000141
_symmetry_Int_Tables_number   1
_chemical_formula_structural   Mg5Si6
_chemical_formula_sum   'Mg5 Si6'
_cell_volume   200.10496026
_cell_formula_units_Z   1
loop_
 _symmetry_equiv_pos_site_id
 _symmetry_equiv_pos_as_xyz
  1  'x, y, z'
loop_
 _atom_site_type_symbol
 _atom_site_label
 _atom_site_symmetry_multiplicity
 _atom_site_fract_x
 _atom_site_fract_y
 _atom_site_fract_z
 _atom_site_occupancy
  Mg  Mg1  1  0.500000  0.000000  0.000000  1.0
  Mg  Mg2  1  0.672663  0.950807  0.345326  1.0
  Mg  Mg3  1  0.327337  0.049193  0.654674  1.0
  Mg  Mg4  1  0.593229  0.433606  0.186458  1.0
  Mg  Mg5  1  0.406771  0.566394  0.813542  1.0
  Si  Si6  1  0.955613  0.302617  0.911224  1.0
  Si  Si7  1  0.044387  0.697383  0.088776  1.0
  Si  Si8  1  0.805904  0.727874  0.611807  1.0
  Si  Si9  1  0.194096  0.272126  0.388193  1.0
  Si  Si10  1  0.798608  0.340117  0.597215  1.0
  Si  Si11  1  0.201392  0.659883  0.402785  1.0
