# generated using pymatgen
data_Li2TiO3
_symmetry_space_group_name_H-M   'P 1'
_cell_length_a   5.75736196
_cell_length_b   8.94809625
_cell_length_c   5.21886300
_cell_angle_alpha   28.97207553
_cell_angle_beta   54.95048538
_cell_angle_gamma   59.84004029
_symmetry_Int_Tables_number   1
_chemical_formula_structural   Li2TiO3
_chemical_formula_sum   'Li4 Ti2 O6'
_cell_volume   106.61559008
_cell_formula_units_Z   2
loop_
 _symmetry_equiv_pos_site_id
 _symmetry_equiv_pos_as_xyz
  1  'x, y, z'
loop_
 _atom_site_type_symbol
 _atom_site_label
 _atom_site_symmetry_multiplicity
 _atom_site_fract_x
 _atom_site_fract_y
 _atom_site_fract_z
 _atom_site_occupancy
  Li  Li1  1  0.000000  0.004704  0.992944  1.0
  Li  Li2  1  0.000000  0.655930  0.016105  1.0
  Li  Li3  1  0.500000  0.328629  0.007056  1.0
  Li  Li4  1  0.500000  0.677404  0.983895  1.0
  Ti  Ti5  1  0.000000  0.344944  0.982583  1.0
  Ti  Ti6  1  0.500000  0.988389  0.017417  1.0
  O  O7  1  0.262130  0.019227  0.430719  1.0
  O  O8  1  0.237870  0.314106  0.569281  1.0
  O  O9  1  0.737870  0.019227  0.511599  1.0
  O  O10  1  0.250000  0.666667  0.500000  1.0
  O  O11  1  0.762130  0.314106  0.488401  1.0
  O  O12  1  0.750000  0.666667  0.500000  1.0
