# generated using pymatgen
data_Sm3Er
_symmetry_space_group_name_H-M   'P 1'
_cell_length_a   7.32908246
_cell_length_b   7.32908220
_cell_length_c   5.80266216
_cell_angle_alpha   90.00000000
_cell_angle_beta   90.00000000
_cell_angle_gamma   119.99999650
_symmetry_Int_Tables_number   1
_chemical_formula_structural   Sm3Er
_chemical_formula_sum   'Sm6 Er2'
_cell_volume   269.93371614
_cell_formula_units_Z   2
loop_
 _symmetry_equiv_pos_site_id
 _symmetry_equiv_pos_as_xyz
  1  'x, y, z'
loop_
 _atom_site_type_symbol
 _atom_site_label
 _atom_site_symmetry_multiplicity
 _atom_site_fract_x
 _atom_site_fract_y
 _atom_site_fract_z
 _atom_site_occupancy
  Sm  Sm1  1  0.166663  0.333326  0.250000  1.0
  Sm  Sm2  1  0.666675  0.833338  0.250000  1.0
  Sm  Sm3  1  0.166663  0.833338  0.250000  1.0
  Sm  Sm4  1  0.833337  0.666674  0.750000  1.0
  Sm  Sm5  1  0.333325  0.166662  0.750000  1.0
  Sm  Sm6  1  0.833337  0.166662  0.750000  1.0
  Er  Er7  1  0.333334  0.666667  0.750000  1.0
  Er  Er8  1  0.666667  0.333331  0.250000  1.0
