# generated using pymatgen
data_Y2Cl3
_symmetry_space_group_name_H-M   'P 1'
_cell_length_a   3.86003642
_cell_length_b   8.14897803
_cell_length_c   9.60384311
_cell_angle_alpha   70.96211732
_cell_angle_beta   78.40671512
_cell_angle_gamma   76.29978750
_symmetry_Int_Tables_number   1
_chemical_formula_structural   Y2Cl3
_chemical_formula_sum   'Y4 Cl6'
_cell_volume   274.91542547
_cell_formula_units_Z   2
loop_
 _symmetry_equiv_pos_site_id
 _symmetry_equiv_pos_as_xyz
  1  'x, y, z'
loop_
 _atom_site_type_symbol
 _atom_site_label
 _atom_site_symmetry_multiplicity
 _atom_site_fract_x
 _atom_site_fract_y
 _atom_site_fract_z
 _atom_site_occupancy
  Y  Y1  1  0.137712  0.014905  0.709671  1.0
  Y  Y2  1  0.862288  0.985095  0.290329  1.0
  Y  Y3  1  0.415139  0.218029  0.951692  1.0
  Y  Y4  1  0.584861  0.781971  0.048308  1.0
  Cl  Cl5  1  0.957116  0.347194  0.738573  1.0
  Cl  Cl6  1  0.042884  0.652806  0.261427  1.0
  Cl  Cl7  1  0.776059  0.330259  0.117623  1.0
  Cl  Cl8  1  0.223941  0.669741  0.882377  1.0
  Cl  Cl9  1  0.338130  0.817118  0.506622  1.0
  Cl  Cl10  1  0.661870  0.182882  0.493378  1.0
