# generated using pymatgen
data_Mn2SnO4
_symmetry_space_group_name_H-M   'P 1'
_cell_length_a   6.39578954
_cell_length_b   6.31889113
_cell_length_c   6.39578978
_cell_angle_alpha   60.39693885
_cell_angle_beta   60.28791478
_cell_angle_gamma   60.39693600
_symmetry_Int_Tables_number   1
_chemical_formula_structural   Mn2SnO4
_chemical_formula_sum   'Mn4 Sn2 O8'
_cell_volume   184.26433335
_cell_formula_units_Z   2
loop_
 _symmetry_equiv_pos_site_id
 _symmetry_equiv_pos_as_xyz
  1  'x, y, z'
loop_
 _atom_site_type_symbol
 _atom_site_label
 _atom_site_symmetry_multiplicity
 _atom_site_fract_x
 _atom_site_fract_y
 _atom_site_fract_z
 _atom_site_occupancy
  Mn  Mn1  1  0.014568  0.985432  0.014568  1.0
  Mn  Mn2  1  0.235432  0.264568  0.235432  1.0
  Mn  Mn3  1  0.625000  0.125000  0.625000  1.0
  Mn  Mn4  1  0.625000  0.625000  0.625000  1.0
  Sn  Sn5  1  0.125000  0.625000  0.625000  1.0
  Sn  Sn6  1  0.625000  0.625000  0.125000  1.0
  O  O7  1  0.375717  0.398319  0.375717  1.0
  O  O8  1  0.375717  0.850247  0.375717  1.0
  O  O9  1  0.367770  0.397686  0.836858  1.0
  O  O10  1  0.836858  0.397686  0.367770  1.0
  O  O11  1  0.413142  0.852314  0.882230  1.0
  O  O12  1  0.882230  0.852314  0.413142  1.0
  O  O13  1  0.874283  0.399753  0.874283  1.0
  O  O14  1  0.874283  0.851681  0.874283  1.0
