# generated using pymatgen
data_PH4Br
_symmetry_space_group_name_H-M   'P 1'
_cell_length_a   4.36920798
_cell_length_b   6.09129980
_cell_length_c   6.09129980
_cell_angle_alpha   90.00000000
_cell_angle_beta   90.00000000
_cell_angle_gamma   90.00000000
_symmetry_Int_Tables_number   1
_chemical_formula_structural   PH4Br
_chemical_formula_sum   'P2 H8 Br2'
_cell_volume   162.11480126
_cell_formula_units_Z   2
loop_
 _symmetry_equiv_pos_site_id
 _symmetry_equiv_pos_as_xyz
  1  'x, y, z'
loop_
 _atom_site_type_symbol
 _atom_site_label
 _atom_site_symmetry_multiplicity
 _atom_site_fract_x
 _atom_site_fract_y
 _atom_site_fract_z
 _atom_site_occupancy
  P  P1  1  0.000000  0.250000  0.750000  1.0
  P  P2  1  0.000000  0.750000  0.250000  1.0
  H  H3  1  0.810114  0.938752  0.250000  1.0
  H  H4  1  0.810114  0.250000  0.561248  1.0
  H  H5  1  0.189886  0.438752  0.750000  1.0
  H  H6  1  0.189886  0.750000  0.438752  1.0
  H  H7  1  0.189886  0.750000  0.061248  1.0
  H  H8  1  0.189886  0.061248  0.750000  1.0
  H  H9  1  0.810114  0.561248  0.250000  1.0
  H  H10  1  0.810114  0.250000  0.938752  1.0
  Br  Br11  1  0.405164  0.250000  0.250000  1.0
  Br  Br12  1  0.594836  0.750000  0.750000  1.0
