# generated using pymatgen
data_Cu2SnSe4
_symmetry_space_group_name_H-M   'P 1'
_cell_length_a   5.62656974
_cell_length_b   5.62656990
_cell_length_c   6.66554194
_cell_angle_alpha   114.96495965
_cell_angle_beta   114.96495500
_cell_angle_gamma   90.00000166
_symmetry_Int_Tables_number   1
_chemical_formula_structural   Cu2SnSe4
_chemical_formula_sum   'Cu2 Sn1 Se4'
_cell_volume   169.30617357
_cell_formula_units_Z   1
loop_
 _symmetry_equiv_pos_site_id
 _symmetry_equiv_pos_as_xyz
  1  'x, y, z'
loop_
 _atom_site_type_symbol
 _atom_site_label
 _atom_site_symmetry_multiplicity
 _atom_site_fract_x
 _atom_site_fract_y
 _atom_site_fract_z
 _atom_site_occupancy
  Cu  Cu1  1  0.250000  0.750000  0.500000  1.0
  Cu  Cu2  1  0.750000  0.250000  0.500000  1.0
  Sn  Sn3  1  0.500000  0.500000  0.000000  1.0
  Se  Se4  1  0.650827  0.650827  0.743577  1.0
  Se  Se5  1  0.349173  0.907249  0.256423  1.0
  Se  Se6  1  0.907249  0.349173  0.256423  1.0
  Se  Se7  1  0.092751  0.092751  0.743577  1.0
