# generated using pymatgen
data_BaGe3Pt
_symmetry_space_group_name_H-M   'P 1'
_cell_length_a   4.61862955
_cell_length_b   4.61862955
_cell_length_c   6.15510705
_cell_angle_alpha   112.03585729
_cell_angle_beta   112.03585731
_cell_angle_gamma   90.00000001
_symmetry_Int_Tables_number   1
_chemical_formula_structural   BaGe3Pt
_chemical_formula_sum   'Ba1 Ge3 Pt1'
_cell_volume   111.29255639
_cell_formula_units_Z   1
loop_
 _symmetry_equiv_pos_site_id
 _symmetry_equiv_pos_as_xyz
  1  'x, y, z'
loop_
 _atom_site_type_symbol
 _atom_site_label
 _atom_site_symmetry_multiplicity
 _atom_site_fract_x
 _atom_site_fract_y
 _atom_site_fract_z
 _atom_site_occupancy
  Ba  Ba1  1  0.999732  0.999732  0.999464  1.0
  Ge  Ge2  1  0.753616  0.253616  0.507231  1.0
  Ge  Ge3  1  0.253616  0.753616  0.507231  1.0
  Ge  Ge4  1  0.400812  0.400812  0.801624  1.0
  Pt  Pt5  1  0.647925  0.647925  0.295850  1.0
