# generated using pymatgen
data_Li2Si
_symmetry_space_group_name_H-M   'P 1'
_cell_length_a   4.34047657
_cell_length_b   4.34348804
_cell_length_c   6.63476493
_cell_angle_alpha   70.92201981
_cell_angle_beta   70.90708753
_cell_angle_gamma   60.02293262
_symmetry_Int_Tables_number   1
_chemical_formula_structural   Li2Si
_chemical_formula_sum   'Li4 Si2'
_cell_volume   100.32932485
_cell_formula_units_Z   2
loop_
 _symmetry_equiv_pos_site_id
 _symmetry_equiv_pos_as_xyz
  1  'x, y, z'
loop_
 _atom_site_type_symbol
 _atom_site_label
 _atom_site_symmetry_multiplicity
 _atom_site_fract_x
 _atom_site_fract_y
 _atom_site_fract_z
 _atom_site_occupancy
  Li  Li1  1  0.355575  0.355431  0.933419  1.0
  Li  Li2  1  0.644425  0.644569  0.066581  1.0
  Li  Li3  1  0.795380  0.794000  0.615239  1.0
  Li  Li4  1  0.204620  0.206000  0.384761  1.0
  Si  Si5  1  0.062238  0.061609  0.813915  1.0
  Si  Si6  1  0.937762  0.938391  0.186085  1.0
