# generated using pymatgen
data_Sm3Ho
_symmetry_space_group_name_H-M   'P 1'
_cell_length_a   7.29127476
_cell_length_b   7.29127288
_cell_length_c   5.78831199
_cell_angle_alpha   90.00000000
_cell_angle_beta   90.00000000
_cell_angle_gamma   119.99999937
_symmetry_Int_Tables_number   1
_chemical_formula_structural   Sm3Ho
_chemical_formula_sum   'Sm6 Ho2'
_cell_volume   266.49519472
_cell_formula_units_Z   2
loop_
 _symmetry_equiv_pos_site_id
 _symmetry_equiv_pos_as_xyz
  1  'x, y, z'
loop_
 _atom_site_type_symbol
 _atom_site_label
 _atom_site_symmetry_multiplicity
 _atom_site_fract_x
 _atom_site_fract_y
 _atom_site_fract_z
 _atom_site_occupancy
  Sm  Sm1  1  0.166760  0.333520  0.250000  1.0
  Sm  Sm2  1  0.666482  0.833242  0.250000  1.0
  Sm  Sm3  1  0.166760  0.833242  0.250000  1.0
  Sm  Sm4  1  0.833240  0.666480  0.750000  1.0
  Sm  Sm5  1  0.333519  0.166759  0.750000  1.0
  Sm  Sm6  1  0.833241  0.166759  0.750000  1.0
  Ho  Ho7  1  0.333334  0.666668  0.750000  1.0
  Ho  Ho8  1  0.666666  0.333332  0.250000  1.0
