# generated using pymatgen
data_Al13(CrSi)4
_symmetry_space_group_name_H-M   'P 1'
_cell_length_a   7.71511252
_cell_length_b   7.71511232
_cell_length_c   7.71511241
_cell_angle_alpha   60.00000396
_cell_angle_beta   60.00000481
_cell_angle_gamma   60.00000238
_symmetry_Int_Tables_number   1
_chemical_formula_structural   Al13(CrSi)4
_chemical_formula_sum   'Al13 Cr4 Si4'
_cell_volume   324.72207566
_cell_formula_units_Z   1
loop_
 _symmetry_equiv_pos_site_id
 _symmetry_equiv_pos_as_xyz
  1  'x, y, z'
loop_
 _atom_site_type_symbol
 _atom_site_label
 _atom_site_symmetry_multiplicity
 _atom_site_fract_x
 _atom_site_fract_y
 _atom_site_fract_z
 _atom_site_occupancy
  Al  Al1  1  0.000000  0.000000  0.000000  1.0
  Al  Al2  1  0.690719  0.309281  0.309281  1.0
  Al  Al3  1  0.309281  0.309281  0.690719  1.0
  Al  Al4  1  0.690719  0.690719  0.309281  1.0
  Al  Al5  1  0.309281  0.690719  0.690719  1.0
  Al  Al6  1  0.309281  0.690719  0.309281  1.0
  Al  Al7  1  0.690719  0.309281  0.690719  1.0
  Al  Al8  1  0.940915  0.559085  0.559085  1.0
  Al  Al9  1  0.559085  0.559085  0.940915  1.0
  Al  Al10  1  0.940915  0.940915  0.559085  1.0
  Al  Al11  1  0.559085  0.940915  0.940915  1.0
  Al  Al12  1  0.559085  0.940915  0.559085  1.0
  Al  Al13  1  0.940915  0.559085  0.940915  1.0
  Cr  Cr14  1  0.342248  0.342248  0.342248  1.0
  Cr  Cr15  1  0.342248  0.342248  0.973257  1.0
  Cr  Cr16  1  0.973257  0.342248  0.342248  1.0
  Cr  Cr17  1  0.342248  0.973257  0.342248  1.0
  Si  Si18  1  0.127445  0.127445  0.127445  1.0
  Si  Si19  1  0.127445  0.127445  0.617665  1.0
  Si  Si20  1  0.617665  0.127445  0.127445  1.0
  Si  Si21  1  0.127445  0.617665  0.127445  1.0
