# generated using pymatgen
data_SrMnBi2
_symmetry_space_group_name_H-M   'P 1'
_cell_length_a   4.63551759
_cell_length_b   4.63551758
_cell_length_c   11.76430066
_cell_angle_alpha   101.36253343
_cell_angle_beta   101.36253343
_cell_angle_gamma   89.99999995
_symmetry_Int_Tables_number   1
_chemical_formula_structural   SrMnBi2
_chemical_formula_sum   'Sr2 Mn2 Bi4'
_cell_volume   242.78115305
_cell_formula_units_Z   2
loop_
 _symmetry_equiv_pos_site_id
 _symmetry_equiv_pos_as_xyz
  1  'x, y, z'
loop_
 _atom_site_type_symbol
 _atom_site_label
 _atom_site_symmetry_multiplicity
 _atom_site_fract_x
 _atom_site_fract_y
 _atom_site_fract_z
 _atom_site_occupancy
  Sr  Sr1  1  0.879937  0.879937  0.759875  1.0
  Sr  Sr2  1  0.120063  0.120063  0.240125  1.0
  Mn  Mn3  1  0.250000  0.750000  0.500000  1.0
  Mn  Mn4  1  0.750000  0.250000  0.500000  1.0
  Bi  Bi5  1  0.500000  0.000000  0.000000  1.0
  Bi  Bi6  1  0.000000  0.500000  0.000000  1.0
  Bi  Bi7  1  0.323281  0.323281  0.646561  1.0
  Bi  Bi8  1  0.676719  0.676719  0.353439  1.0
