# generated using pymatgen
data_AgAsF6
_symmetry_space_group_name_H-M   'P 1'
_cell_length_a   5.97697203
_cell_length_b   5.97697198
_cell_length_c   5.97697188
_cell_angle_alpha   59.99999927
_cell_angle_beta   59.99999912
_cell_angle_gamma   59.99999964
_symmetry_Int_Tables_number   1
_chemical_formula_structural   AgAsF6
_chemical_formula_sum   'Ag1 As1 F6'
_cell_volume   150.98320901
_cell_formula_units_Z   1
loop_
 _symmetry_equiv_pos_site_id
 _symmetry_equiv_pos_as_xyz
  1  'x, y, z'
loop_
 _atom_site_type_symbol
 _atom_site_label
 _atom_site_symmetry_multiplicity
 _atom_site_fract_x
 _atom_site_fract_y
 _atom_site_fract_z
 _atom_site_occupancy
  Ag  Ag1  1  0.500000  0.500000  0.500000  1.0
  As  As2  1  0.000000  0.000000  0.000000  1.0
  F  F3  1  0.210579  0.789421  0.210579  1.0
  F  F4  1  0.210579  0.210579  0.789421  1.0
  F  F5  1  0.789421  0.210579  0.210579  1.0
  F  F6  1  0.210579  0.789421  0.789421  1.0
  F  F7  1  0.789421  0.789421  0.210579  1.0
  F  F8  1  0.789421  0.210579  0.789421  1.0
