# generated using pymatgen
data_DyInPt
_symmetry_space_group_name_H-M   'P 1'
_cell_length_a   7.69411792
_cell_length_b   7.69411792
_cell_length_c   3.86523956
_cell_angle_alpha   90.00000000
_cell_angle_beta   90.00000000
_cell_angle_gamma   119.99999999
_symmetry_Int_Tables_number   1
_chemical_formula_structural   DyInPt
_chemical_formula_sum   'Dy3 In3 Pt3'
_cell_volume   198.16398337
_cell_formula_units_Z   3
loop_
 _symmetry_equiv_pos_site_id
 _symmetry_equiv_pos_as_xyz
  1  'x, y, z'
loop_
 _atom_site_type_symbol
 _atom_site_label
 _atom_site_symmetry_multiplicity
 _atom_site_fract_x
 _atom_site_fract_y
 _atom_site_fract_z
 _atom_site_occupancy
  Dy  Dy1  1  0.593865  0.000000  0.500000  1.0
  Dy  Dy2  1  0.406135  0.406135  0.500000  1.0
  Dy  Dy3  1  0.000000  0.593865  0.500000  1.0
  In  In4  1  0.739245  0.739245  0.000000  1.0
  In  In5  1  0.000000  0.260755  0.000000  1.0
  In  In6  1  0.260755  0.000000  0.000000  1.0
  Pt  Pt7  1  0.333333  0.666667  0.000000  1.0
  Pt  Pt8  1  0.666667  0.333333  0.000000  1.0
  Pt  Pt9  1  0.000000  0.000000  0.500000  1.0
