# generated using pymatgen
data_Yb4As2O
_symmetry_space_group_name_H-M   'P 1'
_cell_length_a   4.51550935
_cell_length_b   4.51550936
_cell_length_c   8.29402610
_cell_angle_alpha   105.79608869
_cell_angle_beta   105.79608872
_cell_angle_gamma   89.99999998
_symmetry_Int_Tables_number   1
_chemical_formula_structural   Yb4As2O
_chemical_formula_sum   'Yb4 As2 O1'
_cell_volume   156.08002187
_cell_formula_units_Z   1
loop_
 _symmetry_equiv_pos_site_id
 _symmetry_equiv_pos_as_xyz
  1  'x, y, z'
loop_
 _atom_site_type_symbol
 _atom_site_label
 _atom_site_symmetry_multiplicity
 _atom_site_fract_x
 _atom_site_fract_y
 _atom_site_fract_z
 _atom_site_occupancy
  Yb  Yb1  1  0.831017  0.831017  0.662033  1.0
  Yb  Yb2  1  0.168983  0.168983  0.337967  1.0
  Yb  Yb3  1  0.000000  0.500000  0.000000  1.0
  Yb  Yb4  1  0.500000  0.000000  0.000000  1.0
  As  As5  1  0.636925  0.636925  0.273851  1.0
  As  As6  1  0.363075  0.363075  0.726149  1.0
  O  O7  1  0.000000  0.000000  0.000000  1.0
