# generated using pymatgen
data_Nb4SiNi
_symmetry_space_group_name_H-M   'P 1'
_cell_length_a   4.96939995
_cell_length_b   6.25290265
_cell_length_c   6.25290265
_cell_angle_alpha   90.00000000
_cell_angle_beta   90.00000000
_cell_angle_gamma   90.00000000
_symmetry_Int_Tables_number   1
_chemical_formula_structural   Nb4SiNi
_chemical_formula_sum   'Nb8 Si2 Ni2'
_cell_volume   194.29753278
_cell_formula_units_Z   2
loop_
 _symmetry_equiv_pos_site_id
 _symmetry_equiv_pos_as_xyz
  1  'x, y, z'
loop_
 _atom_site_type_symbol
 _atom_site_label
 _atom_site_symmetry_multiplicity
 _atom_site_fract_x
 _atom_site_fract_y
 _atom_site_fract_z
 _atom_site_occupancy
  Nb  Nb1  1  0.500000  0.155335  0.336900  1.0
  Nb  Nb2  1  0.500000  0.844665  0.663100  1.0
  Nb  Nb3  1  0.500000  0.663100  0.155335  1.0
  Nb  Nb4  1  0.500000  0.336900  0.844665  1.0
  Nb  Nb5  1  0.000000  0.844665  0.336900  1.0
  Nb  Nb6  1  0.000000  0.663100  0.844665  1.0
  Nb  Nb7  1  0.000000  0.336900  0.155335  1.0
  Nb  Nb8  1  0.000000  0.155335  0.663100  1.0
  Si  Si9  1  0.750000  0.500000  0.500000  1.0
  Si  Si10  1  0.250000  0.500000  0.500000  1.0
  Ni  Ni11  1  0.750000  0.000000  0.000000  1.0
  Ni  Ni12  1  0.250000  0.000000  0.000000  1.0
