# generated using pymatgen
data_BiF5
_symmetry_space_group_name_H-M   'P 1'
_cell_length_a   4.35495586
_cell_length_b   5.35329794
_cell_length_c   5.35329794
_cell_angle_alpha   80.47666905
_cell_angle_beta   65.99888124
_cell_angle_gamma   65.99888115
_symmetry_Int_Tables_number   1
_chemical_formula_structural   BiF5
_chemical_formula_sum   'Bi1 F5'
_cell_volume   104.15481714
_cell_formula_units_Z   1
loop_
 _symmetry_equiv_pos_site_id
 _symmetry_equiv_pos_as_xyz
  1  'x, y, z'
loop_
 _atom_site_type_symbol
 _atom_site_label
 _atom_site_symmetry_multiplicity
 _atom_site_fract_x
 _atom_site_fract_y
 _atom_site_fract_z
 _atom_site_occupancy
  Bi  Bi1  1  0.000000  0.000000  0.000000  1.0
  F  F2  1  0.724565  0.181836  0.369033  1.0
  F  F3  1  0.500000  0.000000  0.000000  1.0
  F  F4  1  0.275435  0.818164  0.630967  1.0
  F  F5  1  0.906402  0.369033  0.818164  1.0
  F  F6  1  0.093598  0.630967  0.181836  1.0
