# generated using pymatgen
data_SmMn3
_symmetry_space_group_name_H-M   'P 1'
_cell_length_a   6.02288968
_cell_length_b   6.02288777
_cell_length_c   4.62889808
_cell_angle_alpha   90.00000000
_cell_angle_beta   90.00000000
_cell_angle_gamma   119.99999277
_symmetry_Int_Tables_number   1
_chemical_formula_structural   SmMn3
_chemical_formula_sum   'Sm2 Mn6'
_cell_volume   145.41793087
_cell_formula_units_Z   2
loop_
 _symmetry_equiv_pos_site_id
 _symmetry_equiv_pos_as_xyz
  1  'x, y, z'
loop_
 _atom_site_type_symbol
 _atom_site_label
 _atom_site_symmetry_multiplicity
 _atom_site_fract_x
 _atom_site_fract_y
 _atom_site_fract_z
 _atom_site_occupancy
  Sm  Sm1  1  0.666666  0.333333  0.250000  1.0
  Sm  Sm2  1  0.333334  0.666668  0.750001  1.0
  Mn  Mn3  1  0.853464  0.146536  0.750001  1.0
  Mn  Mn4  1  0.293073  0.146536  0.750001  1.0
  Mn  Mn5  1  0.853464  0.706929  0.750001  1.0
  Mn  Mn6  1  0.146536  0.853465  0.250000  1.0
  Mn  Mn7  1  0.706929  0.853465  0.250000  1.0
  Mn  Mn8  1  0.146535  0.293070  0.250000  1.0
