# generated using pymatgen
data_Co(BW)3
_symmetry_space_group_name_H-M   'P 1'
_cell_length_a   3.18731272
_cell_length_b   4.52957165
_cell_length_c   10.80454431
_cell_angle_alpha   90.00000000
_cell_angle_beta   90.00000000
_cell_angle_gamma   110.59951896
_symmetry_Int_Tables_number   1
_chemical_formula_structural   Co(BW)3
_chemical_formula_sum   'Co2 B6 W6'
_cell_volume   146.01353218
_cell_formula_units_Z   2
loop_
 _symmetry_equiv_pos_site_id
 _symmetry_equiv_pos_as_xyz
  1  'x, y, z'
loop_
 _atom_site_type_symbol
 _atom_site_label
 _atom_site_symmetry_multiplicity
 _atom_site_fract_x
 _atom_site_fract_y
 _atom_site_fract_z
 _atom_site_occupancy
  Co  Co1  1  0.500000  0.000000  0.000000  1.0
  Co  Co2  1  0.500000  0.000000  0.500000  1.0
  B  B3  1  0.209207  0.418414  0.250000  1.0
  B  B4  1  0.790793  0.581586  0.750000  1.0
  B  B5  1  0.913885  0.827769  0.602733  1.0
  B  B6  1  0.086115  0.172231  0.397267  1.0
  B  B7  1  0.086115  0.172231  0.102733  1.0
  B  B8  1  0.913885  0.827769  0.897267  1.0
  W  W9  1  0.502285  0.004571  0.250000  1.0
  W  W10  1  0.497715  0.995429  0.750000  1.0
  W  W11  1  0.211418  0.422836  0.606919  1.0
  W  W12  1  0.788582  0.577164  0.393081  1.0
  W  W13  1  0.788582  0.577164  0.106919  1.0
  W  W14  1  0.211418  0.422836  0.893081  1.0
