# generated using pymatgen
data_Tm3Si
_symmetry_space_group_name_H-M   'P 1'
_cell_length_a   6.51818108
_cell_length_b   6.51818133
_cell_length_c   5.16177147
_cell_angle_alpha   90.00000000
_cell_angle_beta   90.00000000
_cell_angle_gamma   119.99999365
_symmetry_Int_Tables_number   1
_chemical_formula_structural   Tm3Si
_chemical_formula_sum   'Tm6 Si2'
_cell_volume   189.92506848
_cell_formula_units_Z   2
loop_
 _symmetry_equiv_pos_site_id
 _symmetry_equiv_pos_as_xyz
  1  'x, y, z'
loop_
 _atom_site_type_symbol
 _atom_site_label
 _atom_site_symmetry_multiplicity
 _atom_site_fract_x
 _atom_site_fract_y
 _atom_site_fract_z
 _atom_site_occupancy
  Tm  Tm1  1  0.174443  0.348886  0.249999  1.0
  Tm  Tm2  1  0.651115  0.825557  0.249999  1.0
  Tm  Tm3  1  0.174441  0.825557  0.249999  1.0
  Tm  Tm4  1  0.825557  0.651115  0.750001  1.0
  Tm  Tm5  1  0.348886  0.174443  0.750001  1.0
  Tm  Tm6  1  0.825558  0.174443  0.750001  1.0
  Si  Si7  1  0.333333  0.666667  0.750001  1.0
  Si  Si8  1  0.666667  0.333333  0.249999  1.0
