# generated using pymatgen
data_Ta4FeP
_symmetry_space_group_name_H-M   'P 1'
_cell_length_a   5.09586247
_cell_length_b   6.10750923
_cell_length_c   6.10750923
_cell_angle_alpha   90.00000000
_cell_angle_beta   90.00000000
_cell_angle_gamma   90.00000000
_symmetry_Int_Tables_number   1
_chemical_formula_structural   Ta4FeP
_chemical_formula_sum   'Ta8 Fe2 P2'
_cell_volume   190.08417510
_cell_formula_units_Z   2
loop_
 _symmetry_equiv_pos_site_id
 _symmetry_equiv_pos_as_xyz
  1  'x, y, z'
loop_
 _atom_site_type_symbol
 _atom_site_label
 _atom_site_symmetry_multiplicity
 _atom_site_fract_x
 _atom_site_fract_y
 _atom_site_fract_z
 _atom_site_occupancy
  Ta  Ta1  1  0.500000  0.157479  0.330420  1.0
  Ta  Ta2  1  0.500000  0.842521  0.669580  1.0
  Ta  Ta3  1  0.500000  0.669580  0.157479  1.0
  Ta  Ta4  1  0.500000  0.330420  0.842521  1.0
  Ta  Ta5  1  0.000000  0.842521  0.330420  1.0
  Ta  Ta6  1  0.000000  0.669580  0.842521  1.0
  Ta  Ta7  1  0.000000  0.330420  0.157479  1.0
  Ta  Ta8  1  0.000000  0.157479  0.669580  1.0
  Fe  Fe9  1  0.750000  0.000000  0.000000  1.0
  Fe  Fe10  1  0.250000  0.000000  0.000000  1.0
  P  P11  1  0.750000  0.500000  0.500000  1.0
  P  P12  1  0.250000  0.500000  0.500000  1.0
