# generated using pymatgen
data_Li2PrSb2
_symmetry_space_group_name_H-M   'P 1'
_cell_length_a   4.61700215
_cell_length_b   4.61700215
_cell_length_c   11.10609160
_cell_angle_alpha   90.00000000
_cell_angle_beta   90.00000000
_cell_angle_gamma   90.00000000
_symmetry_Int_Tables_number   1
_chemical_formula_structural   Li2PrSb2
_chemical_formula_sum   'Li4 Pr2 Sb4'
_cell_volume   236.74532113
_cell_formula_units_Z   2
loop_
 _symmetry_equiv_pos_site_id
 _symmetry_equiv_pos_as_xyz
  1  'x, y, z'
loop_
 _atom_site_type_symbol
 _atom_site_label
 _atom_site_symmetry_multiplicity
 _atom_site_fract_x
 _atom_site_fract_y
 _atom_site_fract_z
 _atom_site_occupancy
  Li  Li1  1  0.750000  0.750000  0.376947  1.0
  Li  Li2  1  0.250000  0.250000  0.623053  1.0
  Li  Li3  1  0.750000  0.250000  0.000000  1.0
  Li  Li4  1  0.250000  0.750000  0.000000  1.0
  Pr  Pr5  1  0.750000  0.750000  0.732593  1.0
  Pr  Pr6  1  0.250000  0.250000  0.267407  1.0
  Sb  Sb7  1  0.250000  0.250000  0.853178  1.0
  Sb  Sb8  1  0.750000  0.750000  0.146822  1.0
  Sb  Sb9  1  0.750000  0.250000  0.500000  1.0
  Sb  Sb10  1  0.250000  0.750000  0.500000  1.0
