# generated using pymatgen
data_Zr3P
_symmetry_space_group_name_H-M   'P 1'
_cell_length_a   5.38075208
_cell_length_b   10.85866253
_cell_length_c   10.85866253
_cell_angle_alpha   90.00000000
_cell_angle_beta   90.00000000
_cell_angle_gamma   90.00000000
_symmetry_Int_Tables_number   1
_chemical_formula_structural   Zr3P
_chemical_formula_sum   'Zr24 P8'
_cell_volume   634.44744761
_cell_formula_units_Z   8
loop_
 _symmetry_equiv_pos_site_id
 _symmetry_equiv_pos_as_xyz
  1  'x, y, z'
loop_
 _atom_site_type_symbol
 _atom_site_label
 _atom_site_symmetry_multiplicity
 _atom_site_fract_x
 _atom_site_fract_y
 _atom_site_fract_z
 _atom_site_occupancy
  Zr  Zr1  1  0.528179  0.112832  0.277291  1.0
  Zr  Zr2  1  0.028179  0.722709  0.612832  1.0
  Zr  Zr3  1  0.028179  0.777291  0.887168  1.0
  Zr  Zr4  1  0.528179  0.387168  0.222709  1.0
  Zr  Zr5  1  0.471821  0.887168  0.722709  1.0
  Zr  Zr6  1  0.971821  0.277291  0.387168  1.0
  Zr  Zr7  1  0.971821  0.222709  0.112832  1.0
  Zr  Zr8  1  0.471821  0.612832  0.777291  1.0
  Zr  Zr9  1  0.234898  0.070550  0.534806  1.0
  Zr  Zr10  1  0.734898  0.465194  0.570550  1.0
  Zr  Zr11  1  0.734898  0.034806  0.929450  1.0
  Zr  Zr12  1  0.234898  0.429450  0.965194  1.0
  Zr  Zr13  1  0.765102  0.929450  0.465194  1.0
  Zr  Zr14  1  0.265102  0.534806  0.429450  1.0
  Zr  Zr15  1  0.265102  0.965194  0.070550  1.0
  Zr  Zr16  1  0.765102  0.570550  0.034806  1.0
  Zr  Zr17  1  0.287077  0.665210  0.142652  1.0
  Zr  Zr18  1  0.787077  0.857348  0.165210  1.0
  Zr  Zr19  1  0.787077  0.642652  0.334790  1.0
  Zr  Zr20  1  0.287077  0.834790  0.357348  1.0
  Zr  Zr21  1  0.712923  0.334790  0.857348  1.0
  Zr  Zr22  1  0.212923  0.142652  0.834790  1.0
  Zr  Zr23  1  0.212923  0.357348  0.665210  1.0
  Zr  Zr24  1  0.712923  0.165210  0.642652  1.0
  P  P25  1  0.963373  0.543531  0.790769  1.0
  P  P26  1  0.463373  0.209231  0.043531  1.0
  P  P27  1  0.463373  0.290769  0.456469  1.0
  P  P28  1  0.963373  0.956469  0.709231  1.0
  P  P29  1  0.036627  0.456469  0.209231  1.0
  P  P30  1  0.536627  0.790769  0.956469  1.0
  P  P31  1  0.536627  0.709231  0.543531  1.0
  P  P32  1  0.036627  0.043531  0.290769  1.0
