# generated using pymatgen
data_SrCO3
_symmetry_space_group_name_H-M   'P 1'
_cell_length_a   8.68831970
_cell_length_b   6.91633936
_cell_length_c   6.91633886
_cell_angle_alpha   44.67686029
_cell_angle_beta   37.24021904
_cell_angle_gamma   37.24033290
_symmetry_Int_Tables_number   1
_chemical_formula_structural   SrCO3
_chemical_formula_sum   'Sr2 C2 O6'
_cell_volume   148.77507420
_cell_formula_units_Z   2
loop_
 _symmetry_equiv_pos_site_id
 _symmetry_equiv_pos_as_xyz
  1  'x, y, z'
loop_
 _atom_site_type_symbol
 _atom_site_label
 _atom_site_symmetry_multiplicity
 _atom_site_fract_x
 _atom_site_fract_y
 _atom_site_fract_z
 _atom_site_occupancy
  Sr  Sr1  1  0.249999  0.500001  0.500001  1.0
  Sr  Sr2  1  0.750000  0.499999  0.499999  1.0
  C  C3  1  0.999999  0.000044  0.999957  1.0
  C  C4  1  0.500006  0.999960  0.000034  1.0
  O  O5  1  0.252596  0.247375  0.000024  1.0
  O  O6  1  0.000001  0.247456  0.752544  1.0
  O  O7  1  0.247403  0.752626  0.999977  1.0
  O  O8  1  0.499999  0.752540  0.247460  1.0
  O  O9  1  0.752599  0.000023  0.247372  1.0
  O  O10  1  0.747397  0.999977  0.752632  1.0
