# generated using pymatgen
data_Ag3P11
_symmetry_space_group_name_H-M   'P 1'
_cell_length_a   6.68122502
_cell_length_b   7.58335644
_cell_length_c   7.58335644
_cell_angle_alpha   60.59734000
_cell_angle_beta   65.52252836
_cell_angle_gamma   65.52252835
_symmetry_Int_Tables_number   1
_chemical_formula_structural   Ag3P11
_chemical_formula_sum   'Ag3 P11'
_cell_volume   293.66780992
_cell_formula_units_Z   1
loop_
 _symmetry_equiv_pos_site_id
 _symmetry_equiv_pos_as_xyz
  1  'x, y, z'
loop_
 _atom_site_type_symbol
 _atom_site_label
 _atom_site_symmetry_multiplicity
 _atom_site_fract_x
 _atom_site_fract_y
 _atom_site_fract_z
 _atom_site_occupancy
  Ag  Ag1  1  0.025832  0.708669  0.708669  1.0
  Ag  Ag2  1  0.803597  0.410453  0.410453  1.0
  Ag  Ag3  1  0.002374  0.000690  0.000690  1.0
  P  P4  1  0.045718  0.188889  0.188889  1.0
  P  P5  1  0.055064  0.507605  0.507605  1.0
  P  P6  1  0.726331  0.918067  0.918067  1.0
  P  P7  1  0.530740  0.735181  0.224437  1.0
  P  P8  1  0.530740  0.224437  0.735181  1.0
  P  P9  1  0.502593  0.385946  0.089469  1.0
  P  P10  1  0.502593  0.089469  0.385946  1.0
  P  P11  1  0.271174  0.389951  0.944701  1.0
  P  P12  1  0.271174  0.944701  0.389951  1.0
  P  P13  1  0.266235  0.648767  0.191174  1.0
  P  P14  1  0.266235  0.191174  0.648767  1.0
