# generated using pymatgen
data_MgBiF6
_symmetry_space_group_name_H-M   'P 1'
_cell_length_a   5.78816091
_cell_length_b   5.78816025
_cell_length_c   5.78815986
_cell_angle_alpha   58.08965348
_cell_angle_beta   58.08965195
_cell_angle_gamma   58.08965740
_symmetry_Int_Tables_number   1
_chemical_formula_structural   MgBiF6
_chemical_formula_sum   'Mg1 Bi1 F6'
_cell_volume   131.11592557
_cell_formula_units_Z   1
loop_
 _symmetry_equiv_pos_site_id
 _symmetry_equiv_pos_as_xyz
  1  'x, y, z'
loop_
 _atom_site_type_symbol
 _atom_site_label
 _atom_site_symmetry_multiplicity
 _atom_site_fract_x
 _atom_site_fract_y
 _atom_site_fract_z
 _atom_site_occupancy
  Mg  Mg1  1  0.500000  0.500000  0.500000  1.0
  Bi  Bi2  1  0.000000  0.000000  0.000000  1.0
  F  F3  1  0.356151  0.164384  0.741096  1.0
  F  F4  1  0.164384  0.741096  0.356151  1.0
  F  F5  1  0.258904  0.643849  0.835616  1.0
  F  F6  1  0.835616  0.258904  0.643849  1.0
  F  F7  1  0.643849  0.835616  0.258904  1.0
  F  F8  1  0.741096  0.356151  0.164384  1.0
