# generated using pymatgen
data_Cr3Se4
_symmetry_space_group_name_H-M   'P 1'
_cell_length_a   3.67958849
_cell_length_b   6.43459513
_cell_length_c   6.91890693
_cell_angle_alpha   116.13916896
_cell_angle_beta   105.42092654
_cell_angle_gamma   89.99999998
_symmetry_Int_Tables_number   1
_chemical_formula_structural   Cr3Se4
_chemical_formula_sum   'Cr3 Se4'
_cell_volume   140.46316630
_cell_formula_units_Z   1
loop_
 _symmetry_equiv_pos_site_id
 _symmetry_equiv_pos_as_xyz
  1  'x, y, z'
loop_
 _atom_site_type_symbol
 _atom_site_label
 _atom_site_symmetry_multiplicity
 _atom_site_fract_x
 _atom_site_fract_y
 _atom_site_fract_z
 _atom_site_occupancy
  Cr  Cr1  1  0.500000  0.500000  0.000000  1.0
  Cr  Cr2  1  0.238315  0.217740  0.476630  1.0
  Cr  Cr3  1  0.761685  0.782260  0.523370  1.0
  Se  Se4  1  0.865740  0.522731  0.731480  1.0
  Se  Se5  1  0.134260  0.477269  0.268520  1.0
  Se  Se6  1  0.377197  0.048954  0.754394  1.0
  Se  Se7  1  0.622803  0.951046  0.245606  1.0
