# generated using pymatgen
data_Sc3(NiGe)4
_symmetry_space_group_name_H-M   'P 1'
_cell_length_a   3.91871368
_cell_length_b   6.63581731
_cell_length_c   7.53772962
_cell_angle_alpha   116.11762256
_cell_angle_beta   105.06649732
_cell_angle_gamma   90.00000002
_symmetry_Int_Tables_number   1
_chemical_formula_structural   Sc3(NiGe)4
_chemical_formula_sum   'Sc3 Ni4 Ge4'
_cell_volume   168.45946355
_cell_formula_units_Z   1
loop_
 _symmetry_equiv_pos_site_id
 _symmetry_equiv_pos_as_xyz
  1  'x, y, z'
loop_
 _atom_site_type_symbol
 _atom_site_label
 _atom_site_symmetry_multiplicity
 _atom_site_fract_x
 _atom_site_fract_y
 _atom_site_fract_z
 _atom_site_occupancy
  Sc  Sc1  1  0.873498  0.873471  0.746996  1.0
  Sc  Sc2  1  0.126502  0.126529  0.253004  1.0
  Sc  Sc3  1  0.000000  0.500000  0.000000  1.0
  Ni  Ni4  1  0.677319  0.480781  0.354637  1.0
  Ni  Ni5  1  0.322675  0.126070  0.645350  1.0
  Ni  Ni6  1  0.322681  0.519219  0.645363  1.0
  Ni  Ni7  1  0.677325  0.873930  0.354650  1.0
  Ge  Ge8  1  0.781168  0.281199  0.562335  1.0
  Ge  Ge9  1  0.218832  0.718801  0.437665  1.0
  Ge  Ge10  1  0.500004  0.804240  0.000008  1.0
  Ge  Ge11  1  0.499996  0.195760  0.999992  1.0
