# generated using pymatgen
data_AlCuF5
_symmetry_space_group_name_H-M   'P 1'
_cell_length_a   3.59343989
_cell_length_b   5.16082404
_cell_length_c   5.16082375
_cell_angle_alpha   74.62306121
_cell_angle_beta   69.62605113
_cell_angle_gamma   69.62604027
_symmetry_Int_Tables_number   1
_chemical_formula_structural   AlCuF5
_chemical_formula_sum   'Al1 Cu1 F5'
_cell_volume   82.97145000
_cell_formula_units_Z   1
loop_
 _symmetry_equiv_pos_site_id
 _symmetry_equiv_pos_as_xyz
  1  'x, y, z'
loop_
 _atom_site_type_symbol
 _atom_site_label
 _atom_site_symmetry_multiplicity
 _atom_site_fract_x
 _atom_site_fract_y
 _atom_site_fract_z
 _atom_site_occupancy
  Al  Al1  1  0.500000  0.500000  0.500000  1.0
  Cu  Cu2  1  0.000000  0.000000  0.000000  1.0
  F  F3  1  0.500000  0.792100  0.207900  1.0
  F  F4  1  0.500000  0.207900  0.792100  1.0
  F  F5  1  0.746949  0.253051  0.253051  1.0
  F  F6  1  0.253051  0.746949  0.746949  1.0
  F  F7  1  0.000000  0.500000  0.500000  1.0
