# generated using pymatgen
data_VSn2
_symmetry_space_group_name_H-M   'P 1'
_cell_length_a   5.48940091
_cell_length_b   5.48940091
_cell_length_c   9.79706280
_cell_angle_alpha   98.17289488
_cell_angle_beta   98.17289487
_cell_angle_gamma   119.50931050
_symmetry_Int_Tables_number   1
_chemical_formula_structural   VSn2
_chemical_formula_sum   'V4 Sn8'
_cell_volume   246.47799648
_cell_formula_units_Z   4
loop_
 _symmetry_equiv_pos_site_id
 _symmetry_equiv_pos_as_xyz
  1  'x, y, z'
loop_
 _atom_site_type_symbol
 _atom_site_label
 _atom_site_symmetry_multiplicity
 _atom_site_fract_x
 _atom_site_fract_y
 _atom_site_fract_z
 _atom_site_occupancy
  V  V1  1  0.252584  0.002584  0.005168  1.0
  V  V2  1  0.997416  0.747416  0.494832  1.0
  V  V3  1  0.747416  0.997416  0.994832  1.0
  V  V4  1  0.002584  0.252584  0.505168  1.0
  Sn  Sn5  1  0.958553  0.041447  0.750000  1.0
  Sn  Sn6  1  0.291447  0.708553  0.750000  1.0
  Sn  Sn7  1  0.041447  0.958553  0.250000  1.0
  Sn  Sn8  1  0.708553  0.291447  0.250000  1.0
  Sn  Sn9  1  0.541050  0.291050  0.582101  1.0
  Sn  Sn10  1  0.708950  0.458950  0.917899  1.0
  Sn  Sn11  1  0.458950  0.708950  0.417899  1.0
  Sn  Sn12  1  0.291050  0.541050  0.082101  1.0
