# generated using pymatgen
data_FeGe
_symmetry_space_group_name_H-M   'P 1'
_cell_length_a   3.92232403
_cell_length_b   4.89168845
_cell_length_c   6.25356218
_cell_angle_alpha   103.30232479
_cell_angle_beta   108.27675109
_cell_angle_gamma   90.00000004
_symmetry_Int_Tables_number   1
_chemical_formula_structural   FeGe
_chemical_formula_sum   'Fe4 Ge4'
_cell_volume   110.53740328
_cell_formula_units_Z   4
loop_
 _symmetry_equiv_pos_site_id
 _symmetry_equiv_pos_as_xyz
  1  'x, y, z'
loop_
 _atom_site_type_symbol
 _atom_site_label
 _atom_site_symmetry_multiplicity
 _atom_site_fract_x
 _atom_site_fract_y
 _atom_site_fract_z
 _atom_site_occupancy
  Fe  Fe1  1  0.000000  0.000000  0.000000  1.0
  Fe  Fe2  1  0.000000  0.500000  0.000000  1.0
  Fe  Fe3  1  0.794963  0.639955  0.589926  1.0
  Fe  Fe4  1  0.205037  0.360045  0.410074  1.0
  Ge  Ge5  1  0.184117  0.843634  0.368234  1.0
  Ge  Ge6  1  0.815883  0.156366  0.631766  1.0
  Ge  Ge7  1  0.430213  0.700098  0.860426  1.0
  Ge  Ge8  1  0.569787  0.299902  0.139574  1.0
