# generated using pymatgen
data_LiTbSe2
_symmetry_space_group_name_H-M   'P 1'
_cell_length_a   8.08737993
_cell_length_b   10.73357124
_cell_length_c   7.05853592
_cell_angle_alpha   29.15320106
_cell_angle_beta   55.04873838
_cell_angle_gamma   41.10849641
_symmetry_Int_Tables_number   1
_chemical_formula_structural   LiTbSe2
_chemical_formula_sum   'Li2 Tb2 Se4'
_cell_volume   189.19153193
_cell_formula_units_Z   2
loop_
 _symmetry_equiv_pos_site_id
 _symmetry_equiv_pos_as_xyz
  1  'x, y, z'
loop_
 _atom_site_type_symbol
 _atom_site_label
 _atom_site_symmetry_multiplicity
 _atom_site_fract_x
 _atom_site_fract_y
 _atom_site_fract_z
 _atom_site_occupancy
  Li  Li1  1  0.500002  0.000000  0.000000  1.0
  Li  Li2  1  0.249998  0.500000  0.000000  1.0
  Tb  Tb3  1  0.999991  0.000000  0.000000  1.0
  Tb  Tb4  1  0.750009  0.500000  0.000000  1.0
  Se  Se5  1  0.248071  0.999999  0.503858  1.0
  Se  Se6  1  0.998073  0.499999  0.503858  1.0
  Se  Se7  1  0.751927  0.000001  0.496142  1.0
  Se  Se8  1  0.501929  0.500001  0.496142  1.0
