# generated using pymatgen
data_V2N
_symmetry_space_group_name_H-M   'P 1'
_cell_length_a   4.90589712
_cell_length_b   4.90589719
_cell_length_c   4.54333738
_cell_angle_alpha   90.00000000
_cell_angle_beta   90.00000000
_cell_angle_gamma   119.99999950
_symmetry_Int_Tables_number   1
_chemical_formula_structural   V2N
_chemical_formula_sum   'V6 N3'
_cell_volume   94.69836941
_cell_formula_units_Z   3
loop_
 _symmetry_equiv_pos_site_id
 _symmetry_equiv_pos_as_xyz
  1  'x, y, z'
loop_
 _atom_site_type_symbol
 _atom_site_label
 _atom_site_symmetry_multiplicity
 _atom_site_fract_x
 _atom_site_fract_y
 _atom_site_fract_z
 _atom_site_occupancy
  V  V1  1  0.663685  0.000000  0.753681  1.0
  V  V2  1  0.663685  0.663685  0.246319  1.0
  V  V3  1  0.000000  0.336315  0.246319  1.0
  V  V4  1  0.000000  0.663685  0.753681  1.0
  V  V5  1  0.336315  0.336315  0.753681  1.0
  V  V6  1  0.336315  0.000000  0.246319  1.0
  N  N7  1  0.000000  0.000000  0.000000  1.0
  N  N8  1  0.333333  0.666667  0.500000  1.0
  N  N9  1  0.666667  0.333333  0.500000  1.0
