# generated using pymatgen
data_Li5SbO5
_symmetry_space_group_name_H-M   'P 1'
_cell_length_a   4.06788413
_cell_length_b   5.31822385
_cell_length_c   5.87935755
_cell_angle_alpha   107.40028764
_cell_angle_beta   90.00000000
_cell_angle_gamma   112.48537668
_symmetry_Int_Tables_number   1
_chemical_formula_structural   Li5SbO5
_chemical_formula_sum   'Li5 Sb1 O5'
_cell_volume   111.19840753
_cell_formula_units_Z   1
loop_
 _symmetry_equiv_pos_site_id
 _symmetry_equiv_pos_as_xyz
  1  'x, y, z'
loop_
 _atom_site_type_symbol
 _atom_site_label
 _atom_site_symmetry_multiplicity
 _atom_site_fract_x
 _atom_site_fract_y
 _atom_site_fract_z
 _atom_site_occupancy
  Li  Li1  1  0.711344  0.422689  0.341701  1.0
  Li  Li2  1  0.000000  0.000000  0.500000  1.0
  Li  Li3  1  0.311406  0.622813  0.139243  1.0
  Li  Li4  1  0.688594  0.377187  0.860757  1.0
  Li  Li5  1  0.288656  0.577311  0.658300  1.0
  Sb  Sb6  1  0.000000  0.000000  0.000000  1.0
  O  O7  1  0.856099  0.712197  0.173757  1.0
  O  O8  1  0.500000  0.000000  0.000000  1.0
  O  O9  1  0.156854  0.313709  0.317075  1.0
  O  O10  1  0.843146  0.686291  0.682925  1.0
  O  O11  1  0.143901  0.287803  0.826243  1.0
