# generated using pymatgen
data_Ga2Te3
_symmetry_space_group_name_H-M   'P 1'
_cell_length_a   8.57235809
_cell_length_b   12.80983491
_cell_length_c   7.35948232
_cell_angle_alpha   30.48328296
_cell_angle_beta   54.04150489
_cell_angle_gamma   59.59994053
_symmetry_Int_Tables_number   1
_chemical_formula_structural   Ga2Te3
_chemical_formula_sum   'Ga4 Te6'
_cell_volume   331.84160269
_cell_formula_units_Z   2
loop_
 _symmetry_equiv_pos_site_id
 _symmetry_equiv_pos_as_xyz
  1  'x, y, z'
loop_
 _atom_site_type_symbol
 _atom_site_label
 _atom_site_symmetry_multiplicity
 _atom_site_fract_x
 _atom_site_fract_y
 _atom_site_fract_z
 _atom_site_occupancy
  Ga  Ga1  1  0.121852  0.999578  0.236548  1.0
  Ga  Ga2  1  0.122723  0.669077  0.258351  1.0
  Ga  Ga3  1  0.621852  0.333755  0.235283  1.0
  Ga  Ga4  1  0.622723  0.664257  0.265582  1.0
  Te  Te5  1  0.984093  0.003033  0.997978  1.0
  Te  Te6  1  0.008988  0.325304  0.028209  1.0
  Te  Te7  1  0.508988  0.008029  0.004121  1.0
  Te  Te8  1  0.012345  0.649679  0.008908  1.0
  Te  Te9  1  0.484093  0.330300  0.007077  1.0
  Te  Te10  1  0.512345  0.683655  0.957943  1.0
