# generated using pymatgen
data_Ga3Pd7
_symmetry_space_group_name_H-M   'P 1'
_cell_length_a   4.11814360
_cell_length_b   5.53947628
_cell_length_c   7.18704245
_cell_angle_alpha   104.38510011
_cell_angle_beta   106.64839975
_cell_angle_gamma   89.99999995
_symmetry_Int_Tables_number   1
_chemical_formula_structural   Ga3Pd7
_chemical_formula_sum   'Ga3 Pd7'
_cell_volume   151.70762186
_cell_formula_units_Z   1
loop_
 _symmetry_equiv_pos_site_id
 _symmetry_equiv_pos_as_xyz
  1  'x, y, z'
loop_
 _atom_site_type_symbol
 _atom_site_label
 _atom_site_symmetry_multiplicity
 _atom_site_fract_x
 _atom_site_fract_y
 _atom_site_fract_z
 _atom_site_occupancy
  Ga  Ga1  1  0.000000  0.000000  0.000000  1.0
  Ga  Ga2  1  0.808991  0.337722  0.617982  1.0
  Ga  Ga3  1  0.191009  0.662278  0.382018  1.0
  Pd  Pd4  1  0.000000  0.500000  0.000000  1.0
  Pd  Pd5  1  0.793888  0.861546  0.587776  1.0
  Pd  Pd6  1  0.206112  0.138454  0.412224  1.0
  Pd  Pd7  1  0.625615  0.385085  0.251230  1.0
  Pd  Pd8  1  0.374385  0.614915  0.748770  1.0
  Pd  Pd9  1  0.582173  0.855447  0.164345  1.0
  Pd  Pd10  1  0.417827  0.144553  0.835655  1.0
