# generated using pymatgen
data_Tl2Au
_symmetry_space_group_name_H-M   'P 1'
_cell_length_a   5.76295022
_cell_length_b   6.01487525
_cell_length_c   6.01487525
_cell_angle_alpha   76.73255620
_cell_angle_beta   61.37609243
_cell_angle_gamma   61.37609251
_symmetry_Int_Tables_number   1
_chemical_formula_structural   Tl2Au
_chemical_formula_sum   'Tl4 Au2'
_cell_volume   160.64699424
_cell_formula_units_Z   2
loop_
 _symmetry_equiv_pos_site_id
 _symmetry_equiv_pos_as_xyz
  1  'x, y, z'
loop_
 _atom_site_type_symbol
 _atom_site_label
 _atom_site_symmetry_multiplicity
 _atom_site_fract_x
 _atom_site_fract_y
 _atom_site_fract_z
 _atom_site_occupancy
  Tl  Tl1  1  0.154869  0.500000  0.190263  1.0
  Tl  Tl2  1  0.345131  0.809737  0.500000  1.0
  Tl  Tl3  1  0.654869  0.190263  0.500000  1.0
  Tl  Tl4  1  0.845131  0.500000  0.809737  1.0
  Au  Au5  1  0.250000  0.000000  0.000000  1.0
  Au  Au6  1  0.750000  0.000000  0.000000  1.0
