# generated using pymatgen
data_Li7Si2
_symmetry_space_group_name_H-M   'P 1'
_cell_length_a   4.47632741
_cell_length_b   8.04581569
_cell_length_c   14.91183435
_cell_angle_alpha   90.00000000
_cell_angle_beta   90.00000000
_cell_angle_gamma   90.00000000
_symmetry_Int_Tables_number   1
_chemical_formula_structural   Li7Si2
_chemical_formula_sum   'Li28 Si8'
_cell_volume   537.06023157
_cell_formula_units_Z   4
loop_
 _symmetry_equiv_pos_site_id
 _symmetry_equiv_pos_as_xyz
  1  'x, y, z'
loop_
 _atom_site_type_symbol
 _atom_site_label
 _atom_site_symmetry_multiplicity
 _atom_site_fract_x
 _atom_site_fract_y
 _atom_site_fract_z
 _atom_site_occupancy
  Li  Li1  1  0.000000  0.000000  0.000000  1.0
  Li  Li2  1  0.000000  0.500000  0.500000  1.0
  Li  Li3  1  0.500000  0.500000  0.000000  1.0
  Li  Li4  1  0.500000  0.000000  0.500000  1.0
  Li  Li5  1  0.500000  0.120582  0.356073  1.0
  Li  Li6  1  0.500000  0.879418  0.643927  1.0
  Li  Li7  1  0.500000  0.620582  0.143927  1.0
  Li  Li8  1  0.500000  0.379418  0.856073  1.0
  Li  Li9  1  0.500000  0.233707  0.102816  1.0
  Li  Li10  1  0.500000  0.766293  0.897184  1.0
  Li  Li11  1  0.500000  0.733707  0.397184  1.0
  Li  Li12  1  0.500000  0.266293  0.602816  1.0
  Li  Li13  1  0.500000  0.414164  0.257943  1.0
  Li  Li14  1  0.500000  0.585836  0.742057  1.0
  Li  Li15  1  0.500000  0.914164  0.242057  1.0
  Li  Li16  1  0.500000  0.085836  0.757943  1.0
  Li  Li17  1  0.000000  0.326020  0.987638  1.0
  Li  Li18  1  0.000000  0.673980  0.012362  1.0
  Li  Li19  1  0.000000  0.826020  0.512362  1.0
  Li  Li20  1  0.000000  0.173980  0.487638  1.0
  Li  Li21  1  0.000000  0.116066  0.189533  1.0
  Li  Li22  1  0.000000  0.883934  0.810467  1.0
  Li  Li23  1  0.000000  0.616066  0.310467  1.0
  Li  Li24  1  0.000000  0.383934  0.689533  1.0
  Li  Li25  1  0.000000  0.296366  0.334123  1.0
  Li  Li26  1  0.000000  0.703634  0.665877  1.0
  Li  Li27  1  0.000000  0.796366  0.165877  1.0
  Li  Li28  1  0.000000  0.203634  0.834123  1.0
  Si  Si29  1  0.500000  0.398126  0.436169  1.0
  Si  Si30  1  0.500000  0.601874  0.563831  1.0
  Si  Si31  1  0.500000  0.898126  0.063831  1.0
  Si  Si32  1  0.500000  0.101874  0.936169  1.0
  Si  Si33  1  0.000000  0.442605  0.153815  1.0
  Si  Si34  1  0.000000  0.557395  0.846185  1.0
  Si  Si35  1  0.000000  0.942605  0.346185  1.0
  Si  Si36  1  0.000000  0.057395  0.653815  1.0
