# generated using pymatgen
data_Li9Ge4
_symmetry_space_group_name_H-M   'P 1'
_cell_length_a   4.44303529
_cell_length_b   4.47394115
_cell_length_c   23.74006825
_cell_angle_alpha   90.00000000
_cell_angle_beta   90.00000000
_cell_angle_gamma   119.77174797
_symmetry_Int_Tables_number   1
_chemical_formula_structural   Li9Ge4
_chemical_formula_sum   'Li18 Ge8'
_cell_volume   409.61600948
_cell_formula_units_Z   2
loop_
 _symmetry_equiv_pos_site_id
 _symmetry_equiv_pos_as_xyz
  1  'x, y, z'
loop_
 _atom_site_type_symbol
 _atom_site_label
 _atom_site_symmetry_multiplicity
 _atom_site_fract_x
 _atom_site_fract_y
 _atom_site_fract_z
 _atom_site_occupancy
  Li  Li1  1  0.153395  0.306789  0.250000  1.0
  Li  Li2  1  0.846605  0.693211  0.750000  1.0
  Li  Li3  1  0.836802  0.673604  0.517108  1.0
  Li  Li4  1  0.163198  0.326396  0.482892  1.0
  Li  Li5  1  0.163198  0.326396  0.017108  1.0
  Li  Li6  1  0.836802  0.673604  0.982892  1.0
  Li  Li7  1  0.847582  0.695165  0.631862  1.0
  Li  Li8  1  0.152418  0.304835  0.368138  1.0
  Li  Li9  1  0.177236  0.354472  0.592984  1.0
  Li  Li10  1  0.822764  0.645528  0.407016  1.0
  Li  Li11  1  0.822764  0.645528  0.092984  1.0
  Li  Li12  1  0.177236  0.354472  0.907016  1.0
  Li  Li13  1  0.512578  0.025155  0.823402  1.0
  Li  Li14  1  0.487422  0.974845  0.176598  1.0
  Li  Li15  1  0.487422  0.974845  0.323402  1.0
  Li  Li16  1  0.512578  0.025155  0.676598  1.0
  Li  Li17  1  0.847582  0.695165  0.868138  1.0
  Li  Li18  1  0.152418  0.304835  0.131862  1.0
  Ge  Ge19  1  0.506079  0.012158  0.554472  1.0
  Ge  Ge20  1  0.493921  0.987842  0.445528  1.0
  Ge  Ge21  1  0.493921  0.987842  0.054472  1.0
  Ge  Ge22  1  0.506079  0.012158  0.945528  1.0
  Ge  Ge23  1  0.179466  0.358931  0.699195  1.0
  Ge  Ge24  1  0.820534  0.641069  0.300805  1.0
  Ge  Ge25  1  0.820534  0.641069  0.199195  1.0
  Ge  Ge26  1  0.179466  0.358931  0.800805  1.0
