# generated using pymatgen
data_SrGaCu2
_symmetry_space_group_name_H-M   'P 1'
_cell_length_a   5.87659534
_cell_length_b   5.87659535
_cell_length_c   5.87659534
_cell_angle_alpha   42.78113581
_cell_angle_beta   42.78113576
_cell_angle_gamma   42.78113585
_symmetry_Int_Tables_number   1
_chemical_formula_structural   SrGaCu2
_chemical_formula_sum   'Sr1 Ga1 Cu2'
_cell_volume   84.82019519
_cell_formula_units_Z   1
loop_
 _symmetry_equiv_pos_site_id
 _symmetry_equiv_pos_as_xyz
  1  'x, y, z'
loop_
 _atom_site_type_symbol
 _atom_site_label
 _atom_site_symmetry_multiplicity
 _atom_site_fract_x
 _atom_site_fract_y
 _atom_site_fract_z
 _atom_site_occupancy
  Sr  Sr1  1  0.000000  0.000000  0.000000  1.0
  Ga  Ga2  1  0.500000  0.500000  0.500000  1.0
  Cu  Cu3  1  0.189491  0.189491  0.189491  1.0
  Cu  Cu4  1  0.810509  0.810509  0.810509  1.0
