# generated using pymatgen
data_Cu2PbO2
_symmetry_space_group_name_H-M   'P 1'
_cell_length_a   5.88267587
_cell_length_b   5.88267587
_cell_length_c   6.10568007
_cell_angle_alpha   118.35871345
_cell_angle_beta   118.35871352
_cell_angle_gamma   90.99245509
_symmetry_Int_Tables_number   1
_chemical_formula_structural   Cu2PbO2
_chemical_formula_sum   'Cu4 Pb2 O4'
_cell_volume   155.36140981
_cell_formula_units_Z   2
loop_
 _symmetry_equiv_pos_site_id
 _symmetry_equiv_pos_as_xyz
  1  'x, y, z'
loop_
 _atom_site_type_symbol
 _atom_site_label
 _atom_site_symmetry_multiplicity
 _atom_site_fract_x
 _atom_site_fract_y
 _atom_site_fract_z
 _atom_site_occupancy
  Cu  Cu1  1  0.500000  0.000000  0.000000  1.0
  Cu  Cu2  1  0.000000  0.500000  0.500000  1.0
  Cu  Cu3  1  0.000000  0.000000  0.500000  1.0
  Cu  Cu4  1  0.000000  0.000000  0.000000  1.0
  Pb  Pb5  1  0.377414  0.622586  0.250000  1.0
  Pb  Pb6  1  0.622586  0.377414  0.750000  1.0
  O  O7  1  0.006366  0.646717  0.291092  1.0
  O  O8  1  0.353283  0.993634  0.208908  1.0
  O  O9  1  0.993634  0.353283  0.708908  1.0
  O  O10  1  0.646717  0.006366  0.791092  1.0
