# generated using pymatgen
data_Th2MnN3
_symmetry_space_group_name_H-M   'P 1'
_cell_length_a   3.54757790
_cell_length_b   3.85772751
_cell_length_c   6.87387073
_cell_angle_alpha   106.29650088
_cell_angle_beta   104.95427198
_cell_angle_gamma   90.00000005
_symmetry_Int_Tables_number   1
_chemical_formula_structural   Th2MnN3
_chemical_formula_sum   'Th2 Mn1 N3'
_cell_volume   86.96893579
_cell_formula_units_Z   1
loop_
 _symmetry_equiv_pos_site_id
 _symmetry_equiv_pos_as_xyz
  1  'x, y, z'
loop_
 _atom_site_type_symbol
 _atom_site_label
 _atom_site_symmetry_multiplicity
 _atom_site_fract_x
 _atom_site_fract_y
 _atom_site_fract_z
 _atom_site_occupancy
  Th  Th1  1  0.644312  0.644312  0.288623  1.0
  Th  Th2  1  0.355688  0.355688  0.711377  1.0
  Mn  Mn3  1  0.000000  0.000000  0.000000  1.0
  N  N4  1  0.837316  0.837316  0.674631  1.0
  N  N5  1  0.162684  0.162684  0.325369  1.0
  N  N6  1  0.000000  0.500000  0.000000  1.0
