# generated using pymatgen
data_Er(SiOs)2
_symmetry_space_group_name_H-M   'P 1'
_cell_length_a   4.18212025
_cell_length_b   4.18212039
_cell_length_c   5.62475192
_cell_angle_alpha   111.82422779
_cell_angle_beta   111.82423262
_cell_angle_gamma   90.00000255
_symmetry_Int_Tables_number   1
_chemical_formula_structural   Er(SiOs)2
_chemical_formula_sum   'Er1 Si2 Os2'
_cell_volume   83.68395391
_cell_formula_units_Z   1
loop_
 _symmetry_equiv_pos_site_id
 _symmetry_equiv_pos_as_xyz
  1  'x, y, z'
loop_
 _atom_site_type_symbol
 _atom_site_label
 _atom_site_symmetry_multiplicity
 _atom_site_fract_x
 _atom_site_fract_y
 _atom_site_fract_z
 _atom_site_occupancy
  Er  Er1  1  0.000000  0.000000  0.000000  1.0
  Si  Si2  1  0.627842  0.627842  0.255685  1.0
  Si  Si3  1  0.372157  0.372157  0.744315  1.0
  Os  Os4  1  0.250000  0.750000  0.500000  1.0
  Os  Os5  1  0.750000  0.250000  0.500000  1.0
