# generated using pymatgen
data_SmRhC2
_symmetry_space_group_name_H-M   'P 1'
_cell_length_a   3.63957231
_cell_length_b   4.05776377
_cell_length_c   4.05776377
_cell_angle_alpha   108.95499022
_cell_angle_beta   90.00000000
_cell_angle_gamma   90.00000000
_symmetry_Int_Tables_number   1
_chemical_formula_structural   SmRhC2
_chemical_formula_sum   'Sm1 Rh1 C2'
_cell_volume   56.67757520
_cell_formula_units_Z   1
loop_
 _symmetry_equiv_pos_site_id
 _symmetry_equiv_pos_as_xyz
  1  'x, y, z'
loop_
 _atom_site_type_symbol
 _atom_site_label
 _atom_site_symmetry_multiplicity
 _atom_site_fract_x
 _atom_site_fract_y
 _atom_site_fract_z
 _atom_site_occupancy
  Sm  Sm1  1  0.000000  0.000690  0.999310  1.0
  Rh  Rh2  1  0.500000  0.625059  0.374941  1.0
  C  C3  1  0.500000  0.457421  0.828871  1.0
  C  C4  1  0.500000  0.171129  0.542579  1.0
