# generated using pymatgen
data_Sr2CoO4
_symmetry_space_group_name_H-M   'P 1'
_cell_length_a   3.81155288
_cell_length_b   3.81155205
_cell_length_c   6.89276168
_cell_angle_alpha   106.05080025
_cell_angle_beta   106.05079663
_cell_angle_gamma   89.99999341
_symmetry_Int_Tables_number   1
_chemical_formula_structural   Sr2CoO4
_chemical_formula_sum   'Sr2 Co1 O4'
_cell_volume   92.16504408
_cell_formula_units_Z   1
loop_
 _symmetry_equiv_pos_site_id
 _symmetry_equiv_pos_as_xyz
  1  'x, y, z'
loop_
 _atom_site_type_symbol
 _atom_site_label
 _atom_site_symmetry_multiplicity
 _atom_site_fract_x
 _atom_site_fract_y
 _atom_site_fract_z
 _atom_site_occupancy
  Sr  Sr1  1  0.644263  0.644263  0.288525  1.0
  Sr  Sr2  1  0.355737  0.355737  0.711475  1.0
  Co  Co3  1  0.000000  0.000000  0.000000  1.0
  O  O4  1  0.842154  0.842154  0.684308  1.0
  O  O5  1  0.157846  0.157846  0.315692  1.0
  O  O6  1  0.000000  0.500000  0.000000  1.0
  O  O7  1  0.500000  0.000000  0.000000  1.0
