# generated using pymatgen
data_KCuO2
_symmetry_space_group_name_H-M   'P 1'
_cell_length_a   4.53734957
_cell_length_b   5.48625938
_cell_length_c   6.25185670
_cell_angle_alpha   90.00000000
_cell_angle_beta   111.27718244
_cell_angle_gamma   90.00000000
_symmetry_Int_Tables_number   1
_chemical_formula_structural   KCuO2
_chemical_formula_sum   'K2 Cu2 O4'
_cell_volume   145.01969580
_cell_formula_units_Z   2
loop_
 _symmetry_equiv_pos_site_id
 _symmetry_equiv_pos_as_xyz
  1  'x, y, z'
loop_
 _atom_site_type_symbol
 _atom_site_label
 _atom_site_symmetry_multiplicity
 _atom_site_fract_x
 _atom_site_fract_y
 _atom_site_fract_z
 _atom_site_occupancy
  K  K1  1  0.303255  0.750000  0.606509  1.0
  K  K2  1  0.696745  0.250000  0.393491  1.0
  Cu  Cu3  1  0.997453  0.250000  0.994906  1.0
  Cu  Cu4  1  0.002547  0.750000  0.005094  1.0
  O  O5  1  0.894084  0.504802  0.788167  1.0
  O  O6  1  0.105916  0.495198  0.211833  1.0
  O  O7  1  0.894084  0.995198  0.788167  1.0
  O  O8  1  0.105916  0.004802  0.211833  1.0
