# generated using pymatgen
data_NbCuTe2
_symmetry_space_group_name_H-M   'P 1'
_cell_length_a   3.84085469
_cell_length_b   6.79691670
_cell_length_c   7.32760989
_cell_angle_alpha   107.74979745
_cell_angle_beta   90.00000000
_cell_angle_gamma   90.00000000
_symmetry_Int_Tables_number   1
_chemical_formula_structural   NbCuTe2
_chemical_formula_sum   'Nb2 Cu2 Te4'
_cell_volume   182.18815060
_cell_formula_units_Z   2
loop_
 _symmetry_equiv_pos_site_id
 _symmetry_equiv_pos_as_xyz
  1  'x, y, z'
loop_
 _atom_site_type_symbol
 _atom_site_label
 _atom_site_symmetry_multiplicity
 _atom_site_fract_x
 _atom_site_fract_y
 _atom_site_fract_z
 _atom_site_occupancy
  Nb  Nb1  1  0.750000  0.825486  0.005621  1.0
  Nb  Nb2  1  0.250000  0.174514  0.994379  1.0
  Cu  Cu3  1  0.750000  0.607776  0.591055  1.0
  Cu  Cu4  1  0.250000  0.392224  0.408945  1.0
  Te  Te5  1  0.250000  0.990012  0.287717  1.0
  Te  Te6  1  0.250000  0.504921  0.793860  1.0
  Te  Te7  1  0.750000  0.009988  0.712283  1.0
  Te  Te8  1  0.750000  0.495079  0.206140  1.0
