# generated using pymatgen
data_Li2(CoO2)3
_symmetry_space_group_name_H-M   'P 1'
_cell_length_a   4.88765592
_cell_length_b   4.88170218
_cell_length_c   5.05179584
_cell_angle_alpha   99.31815456
_cell_angle_beta   108.87100276
_cell_angle_gamma   59.95964080
_symmetry_Int_Tables_number   1
_chemical_formula_structural   Li2(CoO2)3
_chemical_formula_sum   'Li2 Co3 O6'
_cell_volume   98.73635153
_cell_formula_units_Z   1
loop_
 _symmetry_equiv_pos_site_id
 _symmetry_equiv_pos_as_xyz
  1  'x, y, z'
loop_
 _atom_site_type_symbol
 _atom_site_label
 _atom_site_symmetry_multiplicity
 _atom_site_fract_x
 _atom_site_fract_y
 _atom_site_fract_z
 _atom_site_occupancy
  Li  Li1  1  0.334032  0.331937  0.000000  1.0
  Li  Li2  1  0.665968  0.668063  0.000000  1.0
  Co  Co3  1  0.500000  0.000000  0.500000  1.0
  Co  Co4  1  0.164879  0.670243  0.500000  1.0
  Co  Co5  1  0.835121  0.329757  0.500000  1.0
  O  O6  1  0.242188  0.000000  0.709336  1.0
  O  O7  1  0.097064  0.340210  0.294245  1.0
  O  O8  1  0.757812  0.000000  0.290664  1.0
  O  O9  1  0.562727  0.340210  0.705755  1.0
  O  O10  1  0.437273  0.659790  0.294245  1.0
  O  O11  1  0.902936  0.659790  0.705755  1.0
