# generated using pymatgen
data_ErSn2
_symmetry_space_group_name_H-M   'P 1'
_cell_length_a   4.35474363
_cell_length_b   4.40302869
_cell_length_c   8.42856540
_cell_angle_alpha   105.14108814
_cell_angle_beta   90.00000000
_cell_angle_gamma   90.00000000
_symmetry_Int_Tables_number   1
_chemical_formula_structural   ErSn2
_chemical_formula_sum   'Er2 Sn4'
_cell_volume   155.99963504
_cell_formula_units_Z   2
loop_
 _symmetry_equiv_pos_site_id
 _symmetry_equiv_pos_as_xyz
  1  'x, y, z'
loop_
 _atom_site_type_symbol
 _atom_site_label
 _atom_site_symmetry_multiplicity
 _atom_site_fract_x
 _atom_site_fract_y
 _atom_site_fract_z
 _atom_site_occupancy
  Er  Er1  1  0.250000  0.901369  0.802738  1.0
  Er  Er2  1  0.750000  0.098631  0.197262  1.0
  Sn  Sn3  1  0.250000  0.250046  0.500091  1.0
  Sn  Sn4  1  0.750000  0.749954  0.499909  1.0
  Sn  Sn5  1  0.750000  0.435878  0.871756  1.0
  Sn  Sn6  1  0.250000  0.564122  0.128244  1.0
