# generated using pymatgen
data_ErPO4
_symmetry_space_group_name_H-M   'P 1'
_cell_length_a   5.73965416
_cell_length_b   5.73965416
_cell_length_c   5.73965416
_cell_angle_alpha   105.95687343
_cell_angle_beta   105.95687344
_cell_angle_gamma   116.75475374
_symmetry_Int_Tables_number   1
_chemical_formula_structural   ErPO4
_chemical_formula_sum   'Er2 P2 O8'
_cell_volume   143.77224971
_cell_formula_units_Z   2
loop_
 _symmetry_equiv_pos_site_id
 _symmetry_equiv_pos_as_xyz
  1  'x, y, z'
loop_
 _atom_site_type_symbol
 _atom_site_label
 _atom_site_symmetry_multiplicity
 _atom_site_fract_x
 _atom_site_fract_y
 _atom_site_fract_z
 _atom_site_occupancy
  Er  Er1  1  0.125000  0.875000  0.250000  1.0
  Er  Er2  1  0.875000  0.125000  0.750000  1.0
  P  P3  1  0.375000  0.625000  0.750000  1.0
  P  P4  1  0.625000  0.375000  0.250000  1.0
  O  O5  1  0.786722  0.361454  0.074732  1.0
  O  O6  1  0.711990  0.786722  0.925268  1.0
  O  O7  1  0.361454  0.786722  0.574732  1.0
  O  O8  1  0.786722  0.711990  0.425268  1.0
  O  O9  1  0.288010  0.213278  0.074732  1.0
  O  O10  1  0.213278  0.638546  0.925268  1.0
  O  O11  1  0.213278  0.288010  0.574732  1.0
  O  O12  1  0.638546  0.213278  0.425268  1.0
