# generated using pymatgen
data_Nd(SiNi)2
_symmetry_space_group_name_H-M   'P 1'
_cell_length_a   4.04907811
_cell_length_b   4.04907852
_cell_length_c   5.59515031
_cell_angle_alpha   111.21312781
_cell_angle_beta   111.21312910
_cell_angle_gamma   89.99999771
_symmetry_Int_Tables_number   1
_chemical_formula_structural   Nd(SiNi)2
_chemical_formula_sum   'Nd1 Si2 Ni2'
_cell_volume   78.81253989
_cell_formula_units_Z   1
loop_
 _symmetry_equiv_pos_site_id
 _symmetry_equiv_pos_as_xyz
  1  'x, y, z'
loop_
 _atom_site_type_symbol
 _atom_site_label
 _atom_site_symmetry_multiplicity
 _atom_site_fract_x
 _atom_site_fract_y
 _atom_site_fract_z
 _atom_site_occupancy
  Nd  Nd1  1  0.000000  0.000000  0.000000  1.0
  Si  Si2  1  0.630115  0.630115  0.260232  1.0
  Si  Si3  1  0.369885  0.369885  0.739768  1.0
  Ni  Ni4  1  0.750000  0.250000  0.500000  1.0
  Ni  Ni5  1  0.250000  0.750000  0.500000  1.0
