# generated using pymatgen
data_BaTaS3
_symmetry_space_group_name_H-M   'P 1'
_cell_length_a   5.75280523
_cell_length_b   6.93807533
_cell_length_c   6.93807533
_cell_angle_alpha   119.86370568
_cell_angle_beta   90.00000000
_cell_angle_gamma   90.00000000
_symmetry_Int_Tables_number   1
_chemical_formula_structural   BaTaS3
_chemical_formula_sum   'Ba2 Ta2 S6'
_cell_volume   240.15030565
_cell_formula_units_Z   2
loop_
 _symmetry_equiv_pos_site_id
 _symmetry_equiv_pos_as_xyz
  1  'x, y, z'
loop_
 _atom_site_type_symbol
 _atom_site_label
 _atom_site_symmetry_multiplicity
 _atom_site_fract_x
 _atom_site_fract_y
 _atom_site_fract_z
 _atom_site_occupancy
  Ba  Ba1  1  0.250000  0.666697  0.333303  1.0
  Ba  Ba2  1  0.750000  0.333303  0.666697  1.0
  Ta  Ta3  1  0.500000  0.000000  0.000000  1.0
  Ta  Ta4  1  0.000000  0.000000  0.000000  1.0
  S  S5  1  0.750000  0.829991  0.660426  1.0
  S  S6  1  0.750000  0.830446  0.169554  1.0
  S  S7  1  0.750000  0.339574  0.170009  1.0
  S  S8  1  0.250000  0.170009  0.339574  1.0
  S  S9  1  0.250000  0.169554  0.830446  1.0
  S  S10  1  0.250000  0.660426  0.829991  1.0
