# generated using pymatgen
data_BaPdS2
_symmetry_space_group_name_H-M   'P 1'
_cell_length_a   5.73698366
_cell_length_b   6.38890245
_cell_length_c   6.38890244
_cell_angle_alpha   115.02886197
_cell_angle_beta   90.00000000
_cell_angle_gamma   90.00000000
_symmetry_Int_Tables_number   1
_chemical_formula_structural   BaPdS2
_chemical_formula_sum   'Ba2 Pd2 S4'
_cell_volume   212.18259509
_cell_formula_units_Z   2
loop_
 _symmetry_equiv_pos_site_id
 _symmetry_equiv_pos_as_xyz
  1  'x, y, z'
loop_
 _atom_site_type_symbol
 _atom_site_label
 _atom_site_symmetry_multiplicity
 _atom_site_fract_x
 _atom_site_fract_y
 _atom_site_fract_z
 _atom_site_occupancy
  Ba  Ba1  1  0.750000  0.348578  0.651422  1.0
  Ba  Ba2  1  0.250000  0.651422  0.348578  1.0
  Pd  Pd3  1  0.500000  0.000000  0.000000  1.0
  Pd  Pd4  1  0.000000  0.000000  0.000000  1.0
  S  S5  1  0.750000  0.858316  0.670480  1.0
  S  S6  1  0.250000  0.141684  0.329520  1.0
  S  S7  1  0.750000  0.329520  0.141684  1.0
  S  S8  1  0.250000  0.670480  0.858316  1.0
