# generated using pymatgen
data_Pr(CuSi)2
_symmetry_space_group_name_H-M   'P 1'
_cell_length_a   4.09117681
_cell_length_b   4.09117698
_cell_length_c   5.77102881
_cell_angle_alpha   110.76024106
_cell_angle_beta   110.76023529
_cell_angle_gamma   90.00001052
_symmetry_Int_Tables_number   1
_chemical_formula_structural   Pr(CuSi)2
_chemical_formula_sum   'Pr1 Cu2 Si2'
_cell_volume   83.58130221
_cell_formula_units_Z   1
loop_
 _symmetry_equiv_pos_site_id
 _symmetry_equiv_pos_as_xyz
  1  'x, y, z'
loop_
 _atom_site_type_symbol
 _atom_site_label
 _atom_site_symmetry_multiplicity
 _atom_site_fract_x
 _atom_site_fract_y
 _atom_site_fract_z
 _atom_site_occupancy
  Pr  Pr1  1  0.000000  0.000000  0.000000  1.0
  Cu  Cu2  1  0.250000  0.750000  0.500000  1.0
  Cu  Cu3  1  0.750000  0.250000  0.500000  1.0
  Si  Si4  1  0.621308  0.621308  0.242616  1.0
  Si  Si5  1  0.378692  0.378692  0.757384  1.0
