# generated using pymatgen
data_KCoO2
_symmetry_space_group_name_H-M   'P 1'
_cell_length_a   5.52814901
_cell_length_b   5.52814901
_cell_length_c   5.52814900
_cell_angle_alpha   96.22140580
_cell_angle_beta   116.47546959
_cell_angle_gamma   116.47546952
_symmetry_Int_Tables_number   1
_chemical_formula_structural   KCoO2
_chemical_formula_sum   'K2 Co2 O4'
_cell_volume   125.02631637
_cell_formula_units_Z   2
loop_
 _symmetry_equiv_pos_site_id
 _symmetry_equiv_pos_as_xyz
  1  'x, y, z'
loop_
 _atom_site_type_symbol
 _atom_site_label
 _atom_site_symmetry_multiplicity
 _atom_site_fract_x
 _atom_site_fract_y
 _atom_site_fract_z
 _atom_site_occupancy
  K  K1  1  0.500000  0.250000  0.749999  1.0
  K  K2  1  0.999999  0.499999  0.499999  1.0
  Co  Co3  1  0.500001  0.750001  0.250000  1.0
  Co  Co4  1  0.000000  0.000000  0.000000  1.0
  O  O5  1  0.119597  0.375001  0.994596  1.0
  O  O6  1  0.380403  0.005403  0.125001  1.0
  O  O7  1  0.619597  0.744596  0.625001  1.0
  O  O8  1  0.880403  0.874999  0.255403  1.0
