# generated using pymatgen
data_TmNiC2
_symmetry_space_group_name_H-M   'P 1'
_cell_length_a   3.50562307
_cell_length_b   3.73578443
_cell_length_c   3.73578444
_cell_angle_alpha   105.89347091
_cell_angle_beta   90.00000000
_cell_angle_gamma   90.00000000
_symmetry_Int_Tables_number   1
_chemical_formula_structural   TmNiC2
_chemical_formula_sum   'Tm1 Ni1 C2'
_cell_volume   47.05450401
_cell_formula_units_Z   1
loop_
 _symmetry_equiv_pos_site_id
 _symmetry_equiv_pos_as_xyz
  1  'x, y, z'
loop_
 _atom_site_type_symbol
 _atom_site_label
 _atom_site_symmetry_multiplicity
 _atom_site_fract_x
 _atom_site_fract_y
 _atom_site_fract_z
 _atom_site_occupancy
  Tm  Tm1  1  0.000000  0.003016  0.996984  1.0
  Ni  Ni2  1  0.500000  0.614068  0.385932  1.0
  C  C3  1  0.500000  0.455262  0.850347  1.0
  C  C4  1  0.500000  0.149653  0.544738  1.0
