# generated using pymatgen
data_Li2Si2O5
_symmetry_space_group_name_H-M   'P 1'
_cell_length_a   4.84283429
_cell_length_b   5.88767899
_cell_length_c   7.96359417
_cell_angle_alpha   111.69478452
_cell_angle_beta   90.00013106
_cell_angle_gamma   89.99964065
_symmetry_Int_Tables_number   1
_chemical_formula_structural   Li2Si2O5
_chemical_formula_sum   'Li4 Si4 O10'
_cell_volume   210.98241871
_cell_formula_units_Z   2
loop_
 _symmetry_equiv_pos_site_id
 _symmetry_equiv_pos_as_xyz
  1  'x, y, z'
loop_
 _atom_site_type_symbol
 _atom_site_label
 _atom_site_symmetry_multiplicity
 _atom_site_fract_x
 _atom_site_fract_y
 _atom_site_fract_z
 _atom_site_occupancy
  Li  Li1  1  0.596548  0.707324  0.115448  1.0
  Li  Li2  1  0.096548  0.591876  0.884552  1.0
  Li  Li3  1  0.096500  0.401823  0.115530  1.0
  Li  Li4  1  0.596500  0.286294  0.884470  1.0
  Si  Si5  1  0.093281  0.989396  0.296410  1.0
  Si  Si6  1  0.093278  0.004220  0.703600  1.0
  Si  Si7  1  0.593278  0.300620  0.296400  1.0
  Si  Si8  1  0.593281  0.692986  0.703590  1.0
  O  O9  1  0.501032  0.399468  0.143333  1.0
  O  O10  1  0.001032  0.256135  0.856667  1.0
  O  O11  1  0.537193  0.496765  0.500007  1.0
  O  O12  1  0.500994  0.594186  0.856669  1.0
  O  O13  1  0.037193  0.996758  0.499993  1.0
  O  O14  1  0.927087  0.767155  0.724637  1.0
  O  O15  1  0.427087  0.042518  0.275363  1.0
  O  O16  1  0.427088  0.951082  0.724607  1.0
  O  O17  1  0.927088  0.226476  0.275393  1.0
  O  O18  1  0.000994  0.737516  0.143331  1.0
