# generated using pymatgen
data_K3CoO2
_symmetry_space_group_name_H-M   'P 1'
_cell_length_a   6.05131528
_cell_length_b   7.37202224
_cell_length_c   11.96094983
_cell_angle_alpha   90.00000612
_cell_angle_beta   89.98567918
_cell_angle_gamma   90.00019997
_symmetry_Int_Tables_number   1
_chemical_formula_structural   K3CoO2
_chemical_formula_sum   'K12 Co4 O8'
_cell_volume   533.58310833
_cell_formula_units_Z   4
loop_
 _symmetry_equiv_pos_site_id
 _symmetry_equiv_pos_as_xyz
  1  'x, y, z'
loop_
 _atom_site_type_symbol
 _atom_site_label
 _atom_site_symmetry_multiplicity
 _atom_site_fract_x
 _atom_site_fract_y
 _atom_site_fract_z
 _atom_site_occupancy
  K  K1  1  0.165376  0.500042  0.360150  1.0
  K  K2  1  0.218714  0.250005  0.094320  1.0
  K  K3  1  0.665371  0.000032  0.139845  1.0
  K  K4  1  0.834620  0.000043  0.639851  1.0
  K  K5  1  0.665373  0.499973  0.139845  1.0
  K  K6  1  0.834622  0.499959  0.639850  1.0
  K  K7  1  0.781291  0.749996  0.905678  1.0
  K  K8  1  0.281297  0.249998  0.594264  1.0
  K  K9  1  0.165377  0.999958  0.360149  1.0
  K  K10  1  0.334624  0.999968  0.860155  1.0
  K  K11  1  0.718700  0.750003  0.405736  1.0
  K  K12  1  0.334630  0.500028  0.860156  1.0
  Co  Co13  1  0.822946  0.250000  0.881815  1.0
  Co  Co14  1  0.177052  0.750000  0.118185  1.0
  Co  Co15  1  0.322932  0.750000  0.618191  1.0
  Co  Co16  1  0.677069  0.250000  0.381810  1.0
  O  O17  1  0.540380  0.749999  0.717308  1.0
  O  O18  1  0.459621  0.250000  0.282692  1.0
  O  O19  1  0.904962  0.249999  0.474151  1.0
  O  O20  1  0.040444  0.250000  0.782667  1.0
  O  O21  1  0.405027  0.749997  0.025840  1.0
  O  O22  1  0.594972  0.250001  0.974159  1.0
  O  O23  1  0.095040  0.750001  0.525848  1.0
  O  O24  1  0.959557  0.750001  0.217334  1.0
