# generated using pymatgen
data_Na3CoO3
_symmetry_space_group_name_H-M   'P 1'
_cell_length_a   5.78817139
_cell_length_b   5.94241388
_cell_length_c   6.40462018
_cell_angle_alpha   64.55746099
_cell_angle_beta   89.27654168
_cell_angle_gamma   85.32378186
_symmetry_Int_Tables_number   1
_chemical_formula_structural   Na3CoO3
_chemical_formula_sum   'Na6 Co2 O6'
_cell_volume   198.20327396
_cell_formula_units_Z   2
loop_
 _symmetry_equiv_pos_site_id
 _symmetry_equiv_pos_as_xyz
  1  'x, y, z'
loop_
 _atom_site_type_symbol
 _atom_site_label
 _atom_site_symmetry_multiplicity
 _atom_site_fract_x
 _atom_site_fract_y
 _atom_site_fract_z
 _atom_site_occupancy
  Na  Na1  1  0.062712  0.768932  0.445328  1.0
  Na  Na2  1  0.856404  0.233771  0.022311  1.0
  Na  Na3  1  0.143595  0.766230  0.977687  1.0
  Na  Na4  1  0.562980  0.743504  0.255689  1.0
  Na  Na5  1  0.937288  0.231071  0.554670  1.0
  Na  Na6  1  0.437020  0.256496  0.744311  1.0
  Co  Co7  1  0.640780  0.809730  0.688202  1.0
  Co  Co8  1  0.359220  0.190265  0.311798  1.0
  O  O9  1  0.743227  0.530209  0.655966  1.0
  O  O10  1  0.256773  0.469792  0.344033  1.0
  O  O11  1  0.753997  0.902148  0.899694  1.0
  O  O12  1  0.691315  0.077423  0.374468  1.0
  O  O13  1  0.246003  0.097853  0.100308  1.0
  O  O14  1  0.308686  0.922574  0.625534  1.0
