# generated using pymatgen
data_Dy(SiRu)2
_symmetry_space_group_name_H-M   'P 1'
_cell_length_a   4.18415759
_cell_length_b   4.18415745
_cell_length_c   5.62166778
_cell_angle_alpha   111.84799870
_cell_angle_beta   111.84799651
_cell_angle_gamma   89.99999828
_symmetry_Int_Tables_number   1
_chemical_formula_structural   Dy(SiRu)2
_chemical_formula_sum   'Dy1 Si2 Ru2'
_cell_volume   83.68642497
_cell_formula_units_Z   1
loop_
 _symmetry_equiv_pos_site_id
 _symmetry_equiv_pos_as_xyz
  1  'x, y, z'
loop_
 _atom_site_type_symbol
 _atom_site_label
 _atom_site_symmetry_multiplicity
 _atom_site_fract_x
 _atom_site_fract_y
 _atom_site_fract_z
 _atom_site_occupancy
  Dy  Dy1  1  0.000000  0.000000  0.000000  1.0
  Si  Si2  1  0.631687  0.631687  0.263374  1.0
  Si  Si3  1  0.368313  0.368313  0.736626  1.0
  Ru  Ru4  1  0.750000  0.250000  0.500000  1.0
  Ru  Ru5  1  0.250000  0.750000  0.500000  1.0
