# generated using pymatgen
data_Ca2SiO4
_symmetry_space_group_name_H-M   'P 1'
_cell_length_a   5.57569945
_cell_length_b   6.81557351
_cell_length_c   9.37991036
_cell_angle_alpha   90.00000000
_cell_angle_beta   94.57359319
_cell_angle_gamma   90.00000000
_symmetry_Int_Tables_number   1
_chemical_formula_structural   Ca2SiO4
_chemical_formula_sum   'Ca8 Si4 O16'
_cell_volume   355.31646678
_cell_formula_units_Z   4
loop_
 _symmetry_equiv_pos_site_id
 _symmetry_equiv_pos_as_xyz
  1  'x, y, z'
loop_
 _atom_site_type_symbol
 _atom_site_label
 _atom_site_symmetry_multiplicity
 _atom_site_fract_x
 _atom_site_fract_y
 _atom_site_fract_z
 _atom_site_occupancy
  Ca  Ca1  1  0.721353  0.503316  0.202515  1.0
  Ca  Ca2  1  0.778647  0.003316  0.297485  1.0
  Ca  Ca3  1  0.278647  0.496684  0.797485  1.0
  Ca  Ca4  1  0.221353  0.996684  0.702515  1.0
  Ca  Ca5  1  0.726499  0.158916  0.930974  1.0
  Ca  Ca6  1  0.773501  0.658916  0.569026  1.0
  Ca  Ca7  1  0.273501  0.841084  0.069026  1.0
  Ca  Ca8  1  0.226499  0.341084  0.430974  1.0
  Si  Si9  1  0.768185  0.718992  0.918463  1.0
  Si  Si10  1  0.731815  0.218992  0.581537  1.0
  Si  Si11  1  0.231815  0.281008  0.081537  1.0
  Si  Si12  1  0.268185  0.781008  0.418463  1.0
  O  O13  1  0.851114  0.830697  0.072309  1.0
  O  O14  1  0.648886  0.330697  0.427691  1.0
  O  O15  1  0.148886  0.169303  0.927691  1.0
  O  O16  1  0.351114  0.669303  0.572309  1.0
  O  O17  1  0.513023  0.832093  0.863782  1.0
  O  O18  1  0.986977  0.332093  0.636218  1.0
  O  O19  1  0.486977  0.167907  0.136218  1.0
  O  O20  1  0.013023  0.667907  0.363782  1.0
  O  O21  1  0.976124  0.748721  0.804402  1.0
  O  O22  1  0.523876  0.248721  0.695598  1.0
  O  O23  1  0.023876  0.251279  0.195598  1.0
  O  O24  1  0.476124  0.751279  0.304402  1.0
  O  O25  1  0.218907  0.012632  0.444055  1.0
  O  O26  1  0.281093  0.512632  0.055945  1.0
  O  O27  1  0.781093  0.987368  0.555945  1.0
  O  O28  1  0.718907  0.487368  0.944055  1.0
