# generated using pymatgen
data_Ba2CuO3
_symmetry_space_group_name_H-M   'P 1'
_cell_length_a   3.85418244
_cell_length_b   4.17360690
_cell_length_c   7.17675600
_cell_angle_alpha   106.90347360
_cell_angle_beta   105.57612359
_cell_angle_gamma   89.99999999
_symmetry_Int_Tables_number   1
_chemical_formula_structural   Ba2CuO3
_chemical_formula_sum   'Ba2 Cu1 O3'
_cell_volume   106.01749868
_cell_formula_units_Z   1
loop_
 _symmetry_equiv_pos_site_id
 _symmetry_equiv_pos_as_xyz
  1  'x, y, z'
loop_
 _atom_site_type_symbol
 _atom_site_label
 _atom_site_symmetry_multiplicity
 _atom_site_fract_x
 _atom_site_fract_y
 _atom_site_fract_z
 _atom_site_occupancy
  Ba  Ba1  1  0.645238  0.145267  0.290476  1.0
  Ba  Ba2  1  0.354762  0.854733  0.709524  1.0
  Cu  Cu3  1  0.000000  0.500000  0.000000  1.0
  O  O4  1  0.000000  0.000000  0.000000  1.0
  O  O5  1  0.852672  0.352694  0.705344  1.0
  O  O6  1  0.147328  0.647306  0.294656  1.0
