# generated using pymatgen
data_GdNiSb
_symmetry_space_group_name_H-M   'P 1'
_cell_length_a   4.52349824
_cell_length_b   4.52349868
_cell_length_c   4.52349872
_cell_angle_alpha   60.00000718
_cell_angle_beta   60.00000410
_cell_angle_gamma   60.00000590
_symmetry_Int_Tables_number   1
_chemical_formula_structural   GdNiSb
_chemical_formula_sum   'Gd1 Ni1 Sb1'
_cell_volume   65.44981509
_cell_formula_units_Z   1
loop_
 _symmetry_equiv_pos_site_id
 _symmetry_equiv_pos_as_xyz
  1  'x, y, z'
loop_
 _atom_site_type_symbol
 _atom_site_label
 _atom_site_symmetry_multiplicity
 _atom_site_fract_x
 _atom_site_fract_y
 _atom_site_fract_z
 _atom_site_occupancy
  Gd  Gd1  1  0.500000  0.500000  0.500000  1.0
  Ni  Ni2  1  0.250000  0.250000  0.250000  1.0
  Sb  Sb3  1  0.000000  0.000000  0.000000  1.0
