# generated using pymatgen
data_Hg5Pd2
_symmetry_space_group_name_H-M   'P 1'
_cell_length_a   3.00102853
_cell_length_b   9.95158098
_cell_length_c   9.95158098
_cell_angle_alpha   90.00000000
_cell_angle_beta   90.00000000
_cell_angle_gamma   90.00000000
_symmetry_Int_Tables_number   1
_chemical_formula_structural   Hg5Pd2
_chemical_formula_sum   'Hg10 Pd4'
_cell_volume   297.20375141
_cell_formula_units_Z   2
loop_
 _symmetry_equiv_pos_site_id
 _symmetry_equiv_pos_as_xyz
  1  'x, y, z'
loop_
 _atom_site_type_symbol
 _atom_site_label
 _atom_site_symmetry_multiplicity
 _atom_site_fract_x
 _atom_site_fract_y
 _atom_site_fract_z
 _atom_site_occupancy
  Hg  Hg1  1  0.000000  0.204839  0.935989  1.0
  Hg  Hg2  1  0.000000  0.935989  0.795161  1.0
  Hg  Hg3  1  0.000000  0.564011  0.295161  1.0
  Hg  Hg4  1  0.000000  0.435989  0.704839  1.0
  Hg  Hg5  1  0.000000  0.704839  0.564011  1.0
  Hg  Hg6  1  0.000000  0.295161  0.435989  1.0
  Hg  Hg7  1  0.000000  0.795161  0.064011  1.0
  Hg  Hg8  1  0.000000  0.064011  0.204839  1.0
  Hg  Hg9  1  0.000000  0.500000  0.000000  1.0
  Hg  Hg10  1  0.000000  0.000000  0.500000  1.0
  Pd  Pd11  1  0.500000  0.819841  0.319841  1.0
  Pd  Pd12  1  0.500000  0.680159  0.819841  1.0
  Pd  Pd13  1  0.500000  0.319841  0.180159  1.0
  Pd  Pd14  1  0.500000  0.180159  0.680159  1.0
