# generated using pymatgen
data_ZrRh
_symmetry_space_group_name_H-M   'P 1'
_cell_length_a   3.38626456
_cell_length_b   4.40985577
_cell_length_c   10.04368548
_cell_angle_alpha   90.00000000
_cell_angle_beta   99.70508851
_cell_angle_gamma   90.00000000
_symmetry_Int_Tables_number   1
_chemical_formula_structural   ZrRh
_chemical_formula_sum   'Zr4 Rh4'
_cell_volume   147.83527227
_cell_formula_units_Z   4
loop_
 _symmetry_equiv_pos_site_id
 _symmetry_equiv_pos_as_xyz
  1  'x, y, z'
loop_
 _atom_site_type_symbol
 _atom_site_label
 _atom_site_symmetry_multiplicity
 _atom_site_fract_x
 _atom_site_fract_y
 _atom_site_fract_z
 _atom_site_occupancy
  Zr  Zr1  1  0.438469  0.750000  0.876938  1.0
  Zr  Zr2  1  0.304921  0.250000  0.609842  1.0
  Zr  Zr3  1  0.695079  0.750000  0.390158  1.0
  Zr  Zr4  1  0.561531  0.250000  0.123062  1.0
  Rh  Rh5  1  0.056838  0.750000  0.113676  1.0
  Rh  Rh6  1  0.943162  0.250000  0.886324  1.0
  Rh  Rh7  1  0.168535  0.250000  0.337069  1.0
  Rh  Rh8  1  0.831465  0.750000  0.662931  1.0
