# generated using pymatgen
data_CrTe2
_symmetry_space_group_name_H-M   'P 1'
_cell_length_a   7.69356654
_cell_length_b   7.69356643
_cell_length_c   12.33542378
_cell_angle_alpha   90.00000000
_cell_angle_beta   90.00000000
_cell_angle_gamma   120.00000048
_symmetry_Int_Tables_number   1
_chemical_formula_structural   CrTe2
_chemical_formula_sum   'Cr8 Te16'
_cell_volume   632.32467001
_cell_formula_units_Z   8
loop_
 _symmetry_equiv_pos_site_id
 _symmetry_equiv_pos_as_xyz
  1  'x, y, z'
loop_
 _atom_site_type_symbol
 _atom_site_label
 _atom_site_symmetry_multiplicity
 _atom_site_fract_x
 _atom_site_fract_y
 _atom_site_fract_z
 _atom_site_occupancy
  Cr  Cr1  1  0.001130  0.500565  0.250102  1.0
  Cr  Cr2  1  0.499435  0.998870  0.250102  1.0
  Cr  Cr3  1  0.000000  0.000000  0.249322  1.0
  Cr  Cr4  1  0.000000  0.000000  0.750678  1.0
  Cr  Cr5  1  0.499435  0.500565  0.250102  1.0
  Cr  Cr6  1  0.500565  0.499435  0.749898  1.0
  Cr  Cr7  1  0.500565  0.001130  0.749898  1.0
  Cr  Cr8  1  0.998870  0.499435  0.749898  1.0
  Te  Te9  1  0.166736  0.833264  0.123812  1.0
  Te  Te10  1  0.166491  0.833509  0.624466  1.0
  Te  Te11  1  0.333333  0.666667  0.376821  1.0
  Te  Te12  1  0.333333  0.666667  0.874968  1.0
  Te  Te13  1  0.166491  0.332981  0.624466  1.0
  Te  Te14  1  0.166736  0.333473  0.123812  1.0
  Te  Te15  1  0.667019  0.833509  0.624466  1.0
  Te  Te16  1  0.666527  0.833264  0.123812  1.0
  Te  Te17  1  0.333473  0.166736  0.876188  1.0
  Te  Te18  1  0.332981  0.166491  0.375534  1.0
  Te  Te19  1  0.833509  0.667019  0.375534  1.0
  Te  Te20  1  0.833264  0.666527  0.876188  1.0
  Te  Te21  1  0.666667  0.333333  0.623179  1.0
  Te  Te22  1  0.666667  0.333333  0.125032  1.0
  Te  Te23  1  0.833509  0.166491  0.375534  1.0
  Te  Te24  1  0.833264  0.166736  0.876188  1.0
