# generated using pymatgen
data_Cd(InS2)2
_symmetry_space_group_name_H-M   'P 1'
_cell_length_a   7.79855363
_cell_length_b   7.79855381
_cell_length_c   7.79855387
_cell_angle_alpha   59.99999977
_cell_angle_beta   59.99999902
_cell_angle_gamma   60.00000271
_symmetry_Int_Tables_number   1
_chemical_formula_structural   Cd(InS2)2
_chemical_formula_sum   'Cd2 In4 S8'
_cell_volume   335.37232356
_cell_formula_units_Z   2
loop_
 _symmetry_equiv_pos_site_id
 _symmetry_equiv_pos_as_xyz
  1  'x, y, z'
loop_
 _atom_site_type_symbol
 _atom_site_label
 _atom_site_symmetry_multiplicity
 _atom_site_fract_x
 _atom_site_fract_y
 _atom_site_fract_z
 _atom_site_occupancy
  Cd  Cd1  1  0.125000  0.125000  0.125000  1.0
  Cd  Cd2  1  0.875000  0.875000  0.875000  1.0
  In  In3  1  0.500000  0.500000  0.000000  1.0
  In  In4  1  0.500000  0.000000  0.500000  1.0
  In  In5  1  0.500000  0.500000  0.500000  1.0
  In  In6  1  0.000000  0.500000  0.500000  1.0
  S  S7  1  0.740171  0.740171  0.279488  1.0
  S  S8  1  0.279488  0.740171  0.740171  1.0
  S  S9  1  0.740171  0.740171  0.740171  1.0
  S  S10  1  0.259829  0.720512  0.259829  1.0
  S  S11  1  0.740171  0.279488  0.740171  1.0
  S  S12  1  0.720512  0.259829  0.259829  1.0
  S  S13  1  0.259829  0.259829  0.259829  1.0
  S  S14  1  0.259829  0.259829  0.720512  1.0
