# generated using pymatgen
data_CaAlSi
_symmetry_space_group_name_H-M   'P 1'
_cell_length_a   4.20654101
_cell_length_b   4.20654142
_cell_length_c   21.78218038
_cell_angle_alpha   90.00000000
_cell_angle_beta   90.00000000
_cell_angle_gamma   119.99999672
_symmetry_Int_Tables_number   1
_chemical_formula_structural   CaAlSi
_chemical_formula_sum   'Ca5 Al5 Si5'
_cell_volume   333.79689539
_cell_formula_units_Z   5
loop_
 _symmetry_equiv_pos_site_id
 _symmetry_equiv_pos_as_xyz
  1  'x, y, z'
loop_
 _atom_site_type_symbol
 _atom_site_label
 _atom_site_symmetry_multiplicity
 _atom_site_fract_x
 _atom_site_fract_y
 _atom_site_fract_z
 _atom_site_occupancy
  Ca  Ca1  1  0.000000  0.000000  0.999541  1.0
  Ca  Ca2  1  0.000000  0.000000  0.601493  1.0
  Ca  Ca3  1  0.000000  0.000000  0.399287  1.0
  Ca  Ca4  1  0.000000  0.000000  0.201544  1.0
  Ca  Ca5  1  0.000000  0.000000  0.800483  1.0
  Al  Al6  1  0.333333  0.666667  0.888553  1.0
  Al  Al7  1  0.333333  0.666667  0.712301  1.0
  Al  Al8  1  0.666667  0.333333  0.491560  1.0
  Al  Al9  1  0.666667  0.333333  0.299934  1.0
  Al  Al10  1  0.666667  0.333333  0.109257  1.0
  Si  Si11  1  0.666667  0.333333  0.694224  1.0
  Si  Si12  1  0.333333  0.666667  0.507811  1.0
  Si  Si13  1  0.333333  0.666667  0.093051  1.0
  Si  Si14  1  0.666667  0.333333  0.906737  1.0
  Si  Si15  1  0.333333  0.666667  0.300584  1.0
