# generated using pymatgen
data_La(SiOs)2
_symmetry_space_group_name_H-M   'P 1'
_cell_length_a   4.24469884
_cell_length_b   4.24469903
_cell_length_c   5.83166866
_cell_angle_alpha   111.34206021
_cell_angle_beta   111.34206126
_cell_angle_gamma   90.00000616
_symmetry_Int_Tables_number   1
_chemical_formula_structural   La(SiOs)2
_chemical_formula_sum   'La1 Si2 Os2'
_cell_volume   90.08667726
_cell_formula_units_Z   1
loop_
 _symmetry_equiv_pos_site_id
 _symmetry_equiv_pos_as_xyz
  1  'x, y, z'
loop_
 _atom_site_type_symbol
 _atom_site_label
 _atom_site_symmetry_multiplicity
 _atom_site_fract_x
 _atom_site_fract_y
 _atom_site_fract_z
 _atom_site_occupancy
  La  La1  1  0.000000  0.000000  0.000000  1.0
  Si  Si2  1  0.363741  0.363741  0.727484  1.0
  Si  Si3  1  0.636259  0.636259  0.272516  1.0
  Os  Os4  1  0.750000  0.250000  0.500000  1.0
  Os  Os5  1  0.250000  0.750000  0.500000  1.0
