# generated using pymatgen
data_TaAgS3
_symmetry_space_group_name_H-M   'P 1'
_cell_length_a   3.39192376
_cell_length_b   7.37868502
_cell_length_c   7.78558463
_cell_angle_alpha   90.00000000
_cell_angle_beta   90.00000000
_cell_angle_gamma   103.28801043
_symmetry_Int_Tables_number   1
_chemical_formula_structural   TaAgS3
_chemical_formula_sum   'Ta2 Ag2 S6'
_cell_volume   189.64021046
_cell_formula_units_Z   2
loop_
 _symmetry_equiv_pos_site_id
 _symmetry_equiv_pos_as_xyz
  1  'x, y, z'
loop_
 _atom_site_type_symbol
 _atom_site_label
 _atom_site_symmetry_multiplicity
 _atom_site_fract_x
 _atom_site_fract_y
 _atom_site_fract_z
 _atom_site_occupancy
  Ta  Ta1  1  0.737144  0.474288  0.510676  1.0
  Ta  Ta2  1  0.262856  0.525712  0.010676  1.0
  Ag  Ag3  1  0.996967  0.993934  0.755986  1.0
  Ag  Ag4  1  0.003033  0.006066  0.255986  1.0
  S  S5  1  0.674326  0.348652  0.190627  1.0
  S  S6  1  0.674647  0.349294  0.830788  1.0
  S  S7  1  0.325353  0.650706  0.330788  1.0
  S  S8  1  0.895556  0.791113  0.010923  1.0
  S  S9  1  0.104444  0.208887  0.510923  1.0
  S  S10  1  0.325674  0.651347  0.690627  1.0
