# generated using pymatgen
data_RbFeF4
_symmetry_space_group_name_H-M   'P 1'
_cell_length_a   5.45708408
_cell_length_b   5.45708408
_cell_length_c   6.58152379
_cell_angle_alpha   90.00000000
_cell_angle_beta   90.00000000
_cell_angle_gamma   90.00000000
_symmetry_Int_Tables_number   1
_chemical_formula_structural   RbFeF4
_chemical_formula_sum   'Rb2 Fe2 F8'
_cell_volume   195.99624271
_cell_formula_units_Z   2
loop_
 _symmetry_equiv_pos_site_id
 _symmetry_equiv_pos_as_xyz
  1  'x, y, z'
loop_
 _atom_site_type_symbol
 _atom_site_label
 _atom_site_symmetry_multiplicity
 _atom_site_fract_x
 _atom_site_fract_y
 _atom_site_fract_z
 _atom_site_occupancy
  Rb  Rb1  1  0.500000  0.000000  0.500000  1.0
  Rb  Rb2  1  0.000000  0.500000  0.500000  1.0
  Fe  Fe3  1  0.500000  0.500000  0.000000  1.0
  Fe  Fe4  1  0.000000  0.000000  0.000000  1.0
  F  F5  1  0.500000  0.500000  0.290724  1.0
  F  F6  1  0.000000  0.000000  0.709276  1.0
  F  F7  1  0.500000  0.500000  0.709276  1.0
  F  F8  1  0.000000  0.000000  0.290724  1.0
  F  F9  1  0.311006  0.811006  0.000000  1.0
  F  F10  1  0.188994  0.311006  0.000000  1.0
  F  F11  1  0.811006  0.688994  0.000000  1.0
  F  F12  1  0.688994  0.188994  0.000000  1.0
