# generated using pymatgen
data_LuAlSi
_symmetry_space_group_name_H-M   'P 1'
_cell_length_a   3.98131686
_cell_length_b   5.41524723
_cell_length_c   5.61193932
_cell_angle_alpha   90.00000000
_cell_angle_beta   90.00000000
_cell_angle_gamma   111.56783316
_symmetry_Int_Tables_number   1
_chemical_formula_structural   LuAlSi
_chemical_formula_sum   'Lu2 Al2 Si2'
_cell_volume   112.52085233
_cell_formula_units_Z   2
loop_
 _symmetry_equiv_pos_site_id
 _symmetry_equiv_pos_as_xyz
  1  'x, y, z'
loop_
 _atom_site_type_symbol
 _atom_site_label
 _atom_site_symmetry_multiplicity
 _atom_site_fract_x
 _atom_site_fract_y
 _atom_site_fract_z
 _atom_site_occupancy
  Lu  Lu1  1  0.305453  0.610906  0.750000  1.0
  Lu  Lu2  1  0.694547  0.389094  0.250000  1.0
  Al  Al3  1  0.000000  0.000000  0.500000  1.0
  Al  Al4  1  0.000000  0.000000  0.000000  1.0
  Si  Si5  1  0.602127  0.204253  0.750000  1.0
  Si  Si6  1  0.397873  0.795747  0.250000  1.0
