# generated using pymatgen
data_V3B4
_symmetry_space_group_name_H-M   'P 1'
_cell_length_a   2.98111509
_cell_length_b   3.04294982
_cell_length_c   6.94803800
_cell_angle_alpha   102.64979209
_cell_angle_beta   102.38696184
_cell_angle_gamma   89.99954169
_symmetry_Int_Tables_number   1
_chemical_formula_structural   V3B4
_chemical_formula_sum   'V3 B4'
_cell_volume   59.99381243
_cell_formula_units_Z   1
loop_
 _symmetry_equiv_pos_site_id
 _symmetry_equiv_pos_as_xyz
  1  'x, y, z'
loop_
 _atom_site_type_symbol
 _atom_site_label
 _atom_site_symmetry_multiplicity
 _atom_site_fract_x
 _atom_site_fract_y
 _atom_site_fract_z
 _atom_site_occupancy
  V  V1  1  0.500000  0.000000  0.000000  1.0
  V  V2  1  0.187460  0.187461  0.374933  1.0
  V  V3  1  0.812540  0.812539  0.625067  1.0
  B  B4  1  0.636424  0.636412  0.272842  1.0
  B  B5  1  0.363576  0.363588  0.727158  1.0
  B  B6  1  0.065533  0.565545  0.131089  1.0
  B  B7  1  0.934467  0.434455  0.868911  1.0
