# generated using pymatgen
data_LiIr3
_symmetry_space_group_name_H-M   'P 1'
_cell_length_a   2.70059851
_cell_length_b   4.69972337
_cell_length_c   5.16445722
_cell_angle_alpha   117.06808499
_cell_angle_beta   105.15692949
_cell_angle_gamma   89.99901834
_symmetry_Int_Tables_number   1
_chemical_formula_structural   LiIr3
_chemical_formula_sum   'Li1 Ir3'
_cell_volume   55.79529199
_cell_formula_units_Z   1
loop_
 _symmetry_equiv_pos_site_id
 _symmetry_equiv_pos_as_xyz
  1  'x, y, z'
loop_
 _atom_site_type_symbol
 _atom_site_label
 _atom_site_symmetry_multiplicity
 _atom_site_fract_x
 _atom_site_fract_y
 _atom_site_fract_z
 _atom_site_occupancy
  Li  Li1  1  0.000000  0.017181  0.000012  1.0
  Ir  Ir2  1  0.240399  0.932939  0.480809  1.0
  Ir  Ir3  1  0.759602  0.452149  0.519185  1.0
  Ir  Ir4  1  0.499999  0.501731  0.999994  1.0
