# generated using pymatgen
data_Mg3Ir
_symmetry_space_group_name_H-M   'P 1'
_cell_length_a   4.57742395
_cell_length_b   4.57742434
_cell_length_c   8.30363564
_cell_angle_alpha   90.00000000
_cell_angle_beta   90.00000000
_cell_angle_gamma   119.99999727
_symmetry_Int_Tables_number   1
_chemical_formula_structural   Mg3Ir
_chemical_formula_sum   'Mg6 Ir2'
_cell_volume   150.67501387
_cell_formula_units_Z   2
loop_
 _symmetry_equiv_pos_site_id
 _symmetry_equiv_pos_as_xyz
  1  'x, y, z'
loop_
 _atom_site_type_symbol
 _atom_site_label
 _atom_site_symmetry_multiplicity
 _atom_site_fract_x
 _atom_site_fract_y
 _atom_site_fract_z
 _atom_site_occupancy
  Mg  Mg1  1  0.000000  0.000000  0.250000  1.0
  Mg  Mg2  1  0.000000  0.000000  0.750000  1.0
  Mg  Mg3  1  0.333333  0.666667  0.577969  1.0
  Mg  Mg4  1  0.666667  0.333333  0.077969  1.0
  Mg  Mg5  1  0.666667  0.333333  0.422031  1.0
  Mg  Mg6  1  0.333333  0.666667  0.922031  1.0
  Ir  Ir7  1  0.333333  0.666667  0.250000  1.0
  Ir  Ir8  1  0.666667  0.333333  0.750000  1.0
