# generated using pymatgen
data_Li2MnP2O7
_symmetry_space_group_name_H-M   'P 1'
_cell_length_a   9.95108245
_cell_length_b   10.00670386
_cell_length_c   11.32788534
_cell_angle_alpha   102.52056628
_cell_angle_beta   90.00000000
_cell_angle_gamma   90.00000000
_symmetry_Int_Tables_number   1
_chemical_formula_structural   Li2MnP2O7
_chemical_formula_sum   'Li16 Mn8 P16 O56'
_cell_volume   1101.17702160
_cell_formula_units_Z   8
loop_
 _symmetry_equiv_pos_site_id
 _symmetry_equiv_pos_as_xyz
  1  'x, y, z'
loop_
 _atom_site_type_symbol
 _atom_site_label
 _atom_site_symmetry_multiplicity
 _atom_site_fract_x
 _atom_site_fract_y
 _atom_site_fract_z
 _atom_site_occupancy
  Li  Li1  1  0.392133  0.414965  0.971537  1.0
  Li  Li2  1  0.780835  0.388745  0.552326  1.0
  Li  Li3  1  0.107867  0.914965  0.971537  1.0
  Li  Li4  1  0.219165  0.611255  0.447674  1.0
  Li  Li5  1  0.280835  0.111255  0.447674  1.0
  Li  Li6  1  0.419050  0.825500  0.449374  1.0
  Li  Li7  1  0.719165  0.888745  0.552326  1.0
  Li  Li8  1  0.580950  0.174500  0.550626  1.0
  Li  Li9  1  0.607867  0.585035  0.028463  1.0
  Li  Li10  1  0.590765  0.154230  0.043142  1.0
  Li  Li11  1  0.409235  0.845770  0.956858  1.0
  Li  Li12  1  0.892133  0.085035  0.028463  1.0
  Li  Li13  1  0.919050  0.674500  0.550626  1.0
  Li  Li14  1  0.080950  0.325500  0.449374  1.0
  Li  Li15  1  0.090765  0.345770  0.956858  1.0
  Li  Li16  1  0.909235  0.654230  0.043142  1.0
  Mn  Mn17  1  0.919323  0.797886  0.324429  1.0
  Mn  Mn18  1  0.286395  0.246110  0.177995  1.0
  Mn  Mn19  1  0.419323  0.702114  0.675571  1.0
  Mn  Mn20  1  0.213605  0.746110  0.177995  1.0
  Mn  Mn21  1  0.713605  0.753890  0.822005  1.0
  Mn  Mn22  1  0.580677  0.297886  0.324429  1.0
  Mn  Mn23  1  0.080677  0.202114  0.675571  1.0
  Mn  Mn24  1  0.786395  0.253890  0.822005  1.0
  P  P25  1  0.546661  0.026193  0.762455  1.0
  P  P26  1  0.297145  0.119237  0.891897  1.0
  P  P27  1  0.149352  0.876570  0.571699  1.0
  P  P28  1  0.046661  0.473807  0.237545  1.0
  P  P29  1  0.202855  0.619237  0.891897  1.0
  P  P30  1  0.433102  0.559292  0.244683  1.0
  P  P31  1  0.649352  0.623430  0.428301  1.0
  P  P32  1  0.797145  0.380763  0.108103  1.0
  P  P33  1  0.702855  0.880763  0.108103  1.0
  P  P34  1  0.066898  0.059292  0.244683  1.0
  P  P35  1  0.566898  0.440708  0.755317  1.0
  P  P36  1  0.953339  0.526193  0.762455  1.0
  P  P37  1  0.933102  0.940708  0.755317  1.0
  P  P38  1  0.850648  0.123430  0.428301  1.0
  P  P39  1  0.350648  0.376570  0.571699  1.0
  P  P40  1  0.453339  0.973807  0.237545  1.0
  O  O41  1  0.086912  0.475057  0.367297  1.0
  O  O42  1  0.829947  0.835953  0.685937  1.0
  O  O43  1  0.087534  0.915323  0.269879  1.0
  O  O44  1  0.222884  0.482092  0.924919  1.0
  O  O45  1  0.534336  0.879658  0.788093  1.0
  O  O46  1  0.339853  0.521702  0.550997  1.0
  O  O47  1  0.172427  0.183112  0.847546  1.0
  O  O48  1  0.839853  0.978298  0.449003  1.0
  O  O49  1  0.170053  0.164047  0.314063  1.0
  O  O50  1  0.398375  0.094690  0.775837  1.0
  O  O51  1  0.034336  0.620342  0.211907  1.0
  O  O52  1  0.277116  0.982092  0.924919  1.0
  O  O53  1  0.938065  0.224641  0.517896  1.0
  O  O54  1  0.912466  0.084677  0.730121  1.0
  O  O55  1  0.777116  0.517908  0.075081  1.0
  O  O56  1  0.827573  0.816888  0.152454  1.0
  O  O57  1  0.580680  0.612014  0.295992  1.0
  O  O58  1  0.601625  0.905310  0.224163  1.0
  O  O59  1  0.561935  0.724641  0.517896  1.0
  O  O60  1  0.327573  0.683112  0.847546  1.0
  O  O61  1  0.465664  0.120342  0.211907  1.0
  O  O62  1  0.329947  0.664047  0.314063  1.0
  O  O63  1  0.898375  0.405310  0.224163  1.0
  O  O64  1  0.913088  0.524943  0.632703  1.0
  O  O65  1  0.287841  0.811168  0.579243  1.0
  O  O66  1  0.587534  0.584677  0.730121  1.0
  O  O67  1  0.419320  0.387986  0.704008  1.0
  O  O68  1  0.787841  0.688832  0.420757  1.0
  O  O69  1  0.586912  0.024943  0.632703  1.0
  O  O70  1  0.670053  0.335953  0.685937  1.0
  O  O71  1  0.438065  0.275359  0.482104  1.0
  O  O72  1  0.135369  0.383609  0.141097  1.0
  O  O73  1  0.867756  0.277228  0.003599  1.0
  O  O74  1  0.061935  0.775359  0.482104  1.0
  O  O75  1  0.212159  0.311168  0.579243  1.0
  O  O76  1  0.160147  0.021702  0.550997  1.0
  O  O77  1  0.367756  0.222772  0.996401  1.0
  O  O78  1  0.436330  0.563432  0.111947  1.0
  O  O79  1  0.635369  0.116391  0.858903  1.0
  O  O80  1  0.412466  0.415323  0.269879  1.0
  O  O81  1  0.722884  0.017908  0.075081  1.0
  O  O82  1  0.965664  0.379658  0.788093  1.0
  O  O83  1  0.936330  0.936568  0.888053  1.0
  O  O84  1  0.712159  0.188832  0.420757  1.0
  O  O85  1  0.364631  0.883609  0.141097  1.0
  O  O86  1  0.132244  0.722772  0.996401  1.0
  O  O87  1  0.101625  0.594690  0.775837  1.0
  O  O88  1  0.660147  0.478298  0.449003  1.0
  O  O89  1  0.413088  0.975057  0.367297  1.0
  O  O90  1  0.563670  0.436568  0.888053  1.0
  O  O91  1  0.063670  0.063432  0.111947  1.0
  O  O92  1  0.672427  0.316888  0.152454  1.0
  O  O93  1  0.919320  0.112014  0.295992  1.0
  O  O94  1  0.080680  0.887986  0.704008  1.0
  O  O95  1  0.864631  0.616391  0.858903  1.0
  O  O96  1  0.632244  0.777228  0.003599  1.0
