# generated using pymatgen
data_Rb2MgF4
_symmetry_space_group_name_H-M   'P 1'
_cell_length_a   4.12942492
_cell_length_b   4.12942492
_cell_length_c   7.59337579
_cell_angle_alpha   105.77793622
_cell_angle_beta   105.77793625
_cell_angle_gamma   89.99999995
_symmetry_Int_Tables_number   1
_chemical_formula_structural   Rb2MgF4
_chemical_formula_sum   'Rb2 Mg1 F4'
_cell_volume   119.52727837
_cell_formula_units_Z   1
loop_
 _symmetry_equiv_pos_site_id
 _symmetry_equiv_pos_as_xyz
  1  'x, y, z'
loop_
 _atom_site_type_symbol
 _atom_site_label
 _atom_site_symmetry_multiplicity
 _atom_site_fract_x
 _atom_site_fract_y
 _atom_site_fract_z
 _atom_site_occupancy
  Rb  Rb1  1  0.648298  0.648298  0.296596  1.0
  Rb  Rb2  1  0.351702  0.351702  0.703404  1.0
  Mg  Mg3  1  0.000000  0.000000  0.000000  1.0
  F  F4  1  0.500000  0.000000  0.000000  1.0
  F  F5  1  0.000000  0.500000  0.000000  1.0
  F  F6  1  0.855364  0.855364  0.710729  1.0
  F  F7  1  0.144636  0.144636  0.289271  1.0
