# generated using pymatgen
data_CeAl4Ni
_symmetry_space_group_name_H-M   'P 1'
_cell_length_a   4.12011510
_cell_length_b   6.59465248
_cell_length_c   8.06557428
_cell_angle_alpha   90.00000000
_cell_angle_beta   104.79809560
_cell_angle_gamma   90.00000000
_symmetry_Int_Tables_number   1
_chemical_formula_structural   CeAl4Ni
_chemical_formula_sum   'Ce2 Al8 Ni2'
_cell_volume   211.87880746
_cell_formula_units_Z   2
loop_
 _symmetry_equiv_pos_site_id
 _symmetry_equiv_pos_as_xyz
  1  'x, y, z'
loop_
 _atom_site_type_symbol
 _atom_site_label
 _atom_site_symmetry_multiplicity
 _atom_site_fract_x
 _atom_site_fract_y
 _atom_site_fract_z
 _atom_site_occupancy
  Ce  Ce1  1  0.114482  0.750000  0.228964  1.0
  Ce  Ce2  1  0.885518  0.250000  0.771036  1.0
  Al  Al3  1  0.500000  0.000000  0.000000  1.0
  Al  Al4  1  0.500000  0.500000  0.000000  1.0
  Al  Al5  1  0.077383  0.250000  0.154766  1.0
  Al  Al6  1  0.922617  0.750000  0.845234  1.0
  Al  Al7  1  0.689193  0.052464  0.378386  1.0
  Al  Al8  1  0.310807  0.947536  0.621614  1.0
  Al  Al9  1  0.310807  0.552464  0.621614  1.0
  Al  Al10  1  0.689193  0.447536  0.378386  1.0
  Ni  Ni11  1  0.773993  0.750000  0.547986  1.0
  Ni  Ni12  1  0.226007  0.250000  0.452014  1.0
