# generated using pymatgen
data_Li2FeP2O7
_symmetry_space_group_name_H-M   'P 1'
_cell_length_a   13.06712470
_cell_length_b   5.07146478
_cell_length_c   8.50338020
_cell_angle_alpha   90.00000000
_cell_angle_beta   101.93398483
_cell_angle_gamma   90.00000000
_symmetry_Int_Tables_number   1
_chemical_formula_structural   Li2FeP2O7
_chemical_formula_sum   'Li8 Fe4 P8 O28'
_cell_volume   551.33491964
_cell_formula_units_Z   4
loop_
 _symmetry_equiv_pos_site_id
 _symmetry_equiv_pos_as_xyz
  1  'x, y, z'
loop_
 _atom_site_type_symbol
 _atom_site_label
 _atom_site_symmetry_multiplicity
 _atom_site_fract_x
 _atom_site_fract_y
 _atom_site_fract_z
 _atom_site_occupancy
  Li  Li1  1  0.174263  0.758316  0.129375  1.0
  Li  Li2  1  0.423895  0.779089  0.917978  1.0
  Li  Li3  1  0.674263  0.741684  0.629375  1.0
  Li  Li4  1  0.325737  0.258316  0.370625  1.0
  Li  Li5  1  0.576105  0.220911  0.082023  1.0
  Li  Li6  1  0.825737  0.241684  0.870625  1.0
  Li  Li7  1  0.076105  0.279088  0.582022  1.0
  Li  Li8  1  0.923895  0.720911  0.417978  1.0
  Fe  Fe9  1  0.478696  0.744098  0.258109  1.0
  Fe  Fe10  1  0.978696  0.755902  0.758109  1.0
  Fe  Fe11  1  0.021304  0.244098  0.241891  1.0
  Fe  Fe12  1  0.521304  0.255902  0.741891  1.0
  P  P13  1  0.377121  0.761507  0.569271  1.0
  P  P14  1  0.622879  0.238493  0.430729  1.0
  P  P15  1  0.122879  0.261507  0.930729  1.0
  P  P16  1  0.877121  0.738493  0.069271  1.0
  P  P17  1  0.646980  0.735085  0.975696  1.0
  P  P18  1  0.853020  0.235085  0.524304  1.0
  P  P19  1  0.146980  0.764915  0.475696  1.0
  P  P20  1  0.353020  0.264915  0.024304  1.0
  O  O21  1  0.057609  0.127516  0.783169  1.0
  O  O22  1  0.101263  0.558376  0.935576  1.0
  O  O23  1  0.398737  0.058376  0.564424  1.0
  O  O24  1  0.898737  0.441624  0.064424  1.0
  O  O25  1  0.857753  0.408104  0.673946  1.0
  O  O26  1  0.138406  0.061195  0.439151  1.0
  O  O27  1  0.741416  0.282666  0.402893  1.0
  O  O28  1  0.119848  0.124752  0.091288  1.0
  O  O29  1  0.638406  0.438805  0.939151  1.0
  O  O30  1  0.258584  0.717334  0.597107  1.0
  O  O31  1  0.442391  0.627516  0.716831  1.0
  O  O32  1  0.380152  0.624752  0.408712  1.0
  O  O33  1  0.241416  0.217334  0.902893  1.0
  O  O34  1  0.601263  0.941624  0.435576  1.0
  O  O35  1  0.942391  0.872484  0.216831  1.0
  O  O36  1  0.431636  0.171138  0.923779  1.0
  O  O37  1  0.931636  0.328862  0.423779  1.0
  O  O38  1  0.068364  0.671138  0.576221  1.0
  O  O39  1  0.758584  0.782666  0.097107  1.0
  O  O40  1  0.357753  0.091896  0.173946  1.0
  O  O41  1  0.568364  0.828862  0.076221  1.0
  O  O42  1  0.880152  0.875248  0.908712  1.0
  O  O43  1  0.619848  0.375248  0.591288  1.0
  O  O44  1  0.642247  0.908104  0.826054  1.0
  O  O45  1  0.142247  0.591896  0.326054  1.0
  O  O46  1  0.361594  0.561195  0.060849  1.0
  O  O47  1  0.557609  0.372484  0.283169  1.0
  O  O48  1  0.861594  0.938805  0.560849  1.0
