# generated using pymatgen
data_C
_symmetry_space_group_name_H-M   'P 1'
_cell_length_a   11.93978172
_cell_length_b   11.93978166
_cell_length_c   11.93978156
_cell_angle_alpha   11.87106420
_cell_angle_beta   11.87106547
_cell_angle_gamma   11.87106624
_symmetry_Int_Tables_number   1
_chemical_formula_structural   C
_chemical_formula_sum   C4
_cell_volume   62.60101712
_cell_formula_units_Z   4
loop_
 _symmetry_equiv_pos_site_id
 _symmetry_equiv_pos_as_xyz
  1  'x, y, z'
loop_
 _atom_site_type_symbol
 _atom_site_label
 _atom_site_symmetry_multiplicity
 _atom_site_fract_x
 _atom_site_fract_y
 _atom_site_fract_z
 _atom_site_occupancy
  C  C1  1  0.949244  0.949244  0.949244  1.0
  C  C2  1  0.282535  0.282535  0.282535  1.0
  C  C3  1  0.717465  0.717465  0.717465  1.0
  C  C4  1  0.050756  0.050756  0.050756  1.0
