# generated using pymatgen
data_Cs2NaYBr6
_symmetry_space_group_name_H-M   'P 1'
_cell_length_a   8.14017026
_cell_length_b   8.14017067
_cell_length_c   8.14017065
_cell_angle_alpha   59.99999869
_cell_angle_beta   59.99999811
_cell_angle_gamma   59.99999822
_symmetry_Int_Tables_number   1
_chemical_formula_structural   Cs2NaYBr6
_chemical_formula_sum   'Cs2 Na1 Y1 Br6'
_cell_volume   381.40422058
_cell_formula_units_Z   1
loop_
 _symmetry_equiv_pos_site_id
 _symmetry_equiv_pos_as_xyz
  1  'x, y, z'
loop_
 _atom_site_type_symbol
 _atom_site_label
 _atom_site_symmetry_multiplicity
 _atom_site_fract_x
 _atom_site_fract_y
 _atom_site_fract_z
 _atom_site_occupancy
  Cs  Cs1  1  0.250000  0.250000  0.250000  1.0
  Cs  Cs2  1  0.750000  0.750000  0.750000  1.0
  Na  Na3  1  0.500000  0.500000  0.500000  1.0
  Y  Y4  1  0.000000  0.000000  0.000000  1.0
  Br  Br5  1  0.243408  0.756592  0.243408  1.0
  Br  Br6  1  0.756592  0.756592  0.243408  1.0
  Br  Br7  1  0.756592  0.243408  0.756592  1.0
  Br  Br8  1  0.756592  0.243408  0.243408  1.0
  Br  Br9  1  0.243408  0.756592  0.756592  1.0
  Br  Br10  1  0.243408  0.243408  0.756592  1.0
