# generated using pymatgen
data_Ho3Mn3Ga2Si
_symmetry_space_group_name_H-M   'P 1'
_cell_length_a   7.06248160
_cell_length_b   7.06248123
_cell_length_c   3.92644752
_cell_angle_alpha   90.00000000
_cell_angle_beta   90.00000000
_cell_angle_gamma   120.00000174
_symmetry_Int_Tables_number   1
_chemical_formula_structural   Ho3Mn3Ga2Si
_chemical_formula_sum   'Ho3 Mn3 Ga2 Si1'
_cell_volume   169.60750174
_cell_formula_units_Z   1
loop_
 _symmetry_equiv_pos_site_id
 _symmetry_equiv_pos_as_xyz
  1  'x, y, z'
loop_
 _atom_site_type_symbol
 _atom_site_label
 _atom_site_symmetry_multiplicity
 _atom_site_fract_x
 _atom_site_fract_y
 _atom_site_fract_z
 _atom_site_occupancy
  Ho  Ho1  1  0.407301  0.407301  0.500000  1.0
  Ho  Ho2  1  0.000000  0.592699  0.500000  1.0
  Ho  Ho3  1  0.592699  0.000000  0.500000  1.0
  Mn  Mn4  1  0.000000  0.220240  0.000000  1.0
  Mn  Mn5  1  0.779760  0.779760  0.000000  1.0
  Mn  Mn6  1  0.220240  0.000000  0.000000  1.0
  Ga  Ga7  1  0.333333  0.666667  0.000000  1.0
  Ga  Ga8  1  0.666667  0.333333  0.000000  1.0
  Si  Si9  1  0.000000  0.000000  0.500000  1.0
