# generated using pymatgen
data_Li5Sn2
_symmetry_space_group_name_H-M   'P 1'
_cell_length_a   7.13819920
_cell_length_b   7.13819920
_cell_length_c   7.13819920
_cell_angle_alpha   38.57595045
_cell_angle_beta   38.57595046
_cell_angle_gamma   38.57595046
_symmetry_Int_Tables_number   1
_chemical_formula_structural   Li5Sn2
_chemical_formula_sum   'Li5 Sn2'
_cell_volume   127.08027495
_cell_formula_units_Z   1
loop_
 _symmetry_equiv_pos_site_id
 _symmetry_equiv_pos_as_xyz
  1  'x, y, z'
loop_
 _atom_site_type_symbol
 _atom_site_label
 _atom_site_symmetry_multiplicity
 _atom_site_fract_x
 _atom_site_fract_y
 _atom_site_fract_z
 _atom_site_occupancy
  Li  Li1  1  0.500000  0.500000  0.500000  1.0
  Li  Li2  1  0.353561  0.353561  0.353561  1.0
  Li  Li3  1  0.646439  0.646439  0.646439  1.0
  Li  Li4  1  0.213654  0.213654  0.213654  1.0
  Li  Li5  1  0.786346  0.786346  0.786346  1.0
  Sn  Sn6  1  0.073603  0.073603  0.073603  1.0
  Sn  Sn7  1  0.926397  0.926397  0.926397  1.0
