# generated using pymatgen
data_Zr5Sn4
_symmetry_space_group_name_H-M   'P 1'
_cell_length_a   8.85899746
_cell_length_b   8.85899790
_cell_length_c   5.97933208
_cell_angle_alpha   90.00000000
_cell_angle_beta   90.00000000
_cell_angle_gamma   119.99999836
_symmetry_Int_Tables_number   1
_chemical_formula_structural   Zr5Sn4
_chemical_formula_sum   'Zr10 Sn8'
_cell_volume   406.39886718
_cell_formula_units_Z   2
loop_
 _symmetry_equiv_pos_site_id
 _symmetry_equiv_pos_as_xyz
  1  'x, y, z'
loop_
 _atom_site_type_symbol
 _atom_site_label
 _atom_site_symmetry_multiplicity
 _atom_site_fract_x
 _atom_site_fract_y
 _atom_site_fract_z
 _atom_site_occupancy
  Zr  Zr1  1  0.333333  0.666667  0.000000  1.0
  Zr  Zr2  1  0.666667  0.333333  0.500000  1.0
  Zr  Zr3  1  0.666667  0.333333  0.000000  1.0
  Zr  Zr4  1  0.333333  0.666667  0.500000  1.0
  Zr  Zr5  1  0.280836  0.000000  0.250000  1.0
  Zr  Zr6  1  0.280836  0.280836  0.750000  1.0
  Zr  Zr7  1  0.000000  0.719164  0.750000  1.0
  Zr  Zr8  1  0.000000  0.280836  0.250000  1.0
  Zr  Zr9  1  0.719164  0.719164  0.250000  1.0
  Zr  Zr10  1  0.719164  0.000000  0.750000  1.0
  Sn  Sn11  1  0.000000  0.000000  0.000000  1.0
  Sn  Sn12  1  0.000000  0.000000  0.500000  1.0
  Sn  Sn13  1  0.613897  0.000000  0.250000  1.0
  Sn  Sn14  1  0.613897  0.613897  0.750000  1.0
  Sn  Sn15  1  0.000000  0.386103  0.750000  1.0
  Sn  Sn16  1  0.000000  0.613897  0.250000  1.0
  Sn  Sn17  1  0.386103  0.386103  0.250000  1.0
  Sn  Sn18  1  0.386103  0.000000  0.750000  1.0
