# generated using pymatgen
data_Cs2Pd(IBr2)2
_symmetry_space_group_name_H-M   'P 1'
_cell_length_a   7.66044624
_cell_length_b   7.66044656
_cell_length_c   7.66044702
_cell_angle_alpha   106.82501368
_cell_angle_beta   110.81030604
_cell_angle_gamma   110.81031195
_symmetry_Int_Tables_number   1
_chemical_formula_structural   Cs2Pd(IBr2)2
_chemical_formula_sum   'Cs2 Pd1 I2 Br4'
_cell_volume   345.50082167
_cell_formula_units_Z   1
loop_
 _symmetry_equiv_pos_site_id
 _symmetry_equiv_pos_as_xyz
  1  'x, y, z'
loop_
 _atom_site_type_symbol
 _atom_site_label
 _atom_site_symmetry_multiplicity
 _atom_site_fract_x
 _atom_site_fract_y
 _atom_site_fract_z
 _atom_site_occupancy
  Cs  Cs1  1  0.500000  0.750000  0.250000  1.0
  Cs  Cs2  1  0.500000  0.250000  0.750000  1.0
  Pd  Pd3  1  0.000000  0.000000  0.000000  1.0
  I  I4  1  0.000000  0.342387  0.342387  1.0
  I  I5  1  0.000000  0.657613  0.657613  1.0
  Br  Br6  1  0.403624  0.201812  0.201812  1.0
  Br  Br7  1  0.000000  0.201812  0.798188  1.0
  Br  Br8  1  0.000000  0.798188  0.201812  1.0
  Br  Br9  1  0.596376  0.798188  0.798188  1.0
