# generated using pymatgen
data_Cs2CuF6
_symmetry_space_group_name_H-M   'P 1'
_cell_length_a   6.43216829
_cell_length_b   6.43216829
_cell_length_c   6.43216829
_cell_angle_alpha   90.00244318
_cell_angle_beta   119.99858947
_cell_angle_gamma   119.99858943
_symmetry_Int_Tables_number   1
_chemical_formula_structural   Cs2CuF6
_chemical_formula_sum   'Cs2 Cu1 F6'
_cell_volume   188.17696380
_cell_formula_units_Z   1
loop_
 _symmetry_equiv_pos_site_id
 _symmetry_equiv_pos_as_xyz
  1  'x, y, z'
loop_
 _atom_site_type_symbol
 _atom_site_label
 _atom_site_symmetry_multiplicity
 _atom_site_fract_x
 _atom_site_fract_y
 _atom_site_fract_z
 _atom_site_occupancy
  Cs  Cs1  1  0.500000  0.250000  0.750000  1.0
  Cs  Cs2  1  0.500000  0.750000  0.250000  1.0
  Cu  Cu3  1  0.000000  0.000000  0.000000  1.0
  F  F4  1  0.591330  0.795665  0.795665  1.0
  F  F5  1  0.000000  0.795665  0.204335  1.0
  F  F6  1  0.000000  0.204335  0.795665  1.0
  F  F7  1  0.000000  0.205884  0.205884  1.0
  F  F8  1  0.000000  0.794116  0.794116  1.0
  F  F9  1  0.408670  0.204335  0.204335  1.0
