# generated using pymatgen
data_MgSn4Ru
_symmetry_space_group_name_H-M   'P 1'
_cell_length_a   6.84334088
_cell_length_b   6.84334088
_cell_length_c   7.47260457
_cell_angle_alpha   117.25137760
_cell_angle_beta   117.25137761
_cell_angle_gamma   90.00000002
_symmetry_Int_Tables_number   1
_chemical_formula_structural   MgSn4Ru
_chemical_formula_sum   'Mg2 Sn8 Ru2'
_cell_volume   266.66789122
_cell_formula_units_Z   2
loop_
 _symmetry_equiv_pos_site_id
 _symmetry_equiv_pos_as_xyz
  1  'x, y, z'
loop_
 _atom_site_type_symbol
 _atom_site_label
 _atom_site_symmetry_multiplicity
 _atom_site_fract_x
 _atom_site_fract_y
 _atom_site_fract_z
 _atom_site_occupancy
  Mg  Mg1  1  0.500000  0.500000  0.000000  1.0
  Mg  Mg2  1  0.000000  0.000000  0.000000  1.0
  Sn  Sn3  1  0.515246  0.705041  0.720287  1.0
  Sn  Sn4  1  0.015246  0.515246  0.720287  1.0
  Sn  Sn5  1  0.705041  0.205041  0.720287  1.0
  Sn  Sn6  1  0.294959  0.794959  0.279713  1.0
  Sn  Sn7  1  0.984754  0.484754  0.279713  1.0
  Sn  Sn8  1  0.484754  0.294959  0.279713  1.0
  Sn  Sn9  1  0.794959  0.984754  0.279713  1.0
  Sn  Sn10  1  0.205041  0.015246  0.720287  1.0
  Ru  Ru11  1  0.750000  0.750000  0.500000  1.0
  Ru  Ru12  1  0.250000  0.250000  0.500000  1.0
