# generated using pymatgen
data_Y(CoB)2
_symmetry_space_group_name_H-M   'P 1'
_cell_length_a   3.55183952
_cell_length_b   3.55183951
_cell_length_c   5.34698771
_cell_angle_alpha   109.39838983
_cell_angle_beta   109.39838983
_cell_angle_gamma   90.00000009
_symmetry_Int_Tables_number   1
_chemical_formula_structural   Y(CoB)2
_chemical_formula_sum   'Y1 Co2 B2'
_cell_volume   59.55093489
_cell_formula_units_Z   1
loop_
 _symmetry_equiv_pos_site_id
 _symmetry_equiv_pos_as_xyz
  1  'x, y, z'
loop_
 _atom_site_type_symbol
 _atom_site_label
 _atom_site_symmetry_multiplicity
 _atom_site_fract_x
 _atom_site_fract_y
 _atom_site_fract_z
 _atom_site_occupancy
  Y  Y1  1  0.000000  0.000000  0.000000  1.0
  Co  Co2  1  0.250000  0.750000  0.500000  1.0
  Co  Co3  1  0.750000  0.250000  0.500000  1.0
  B  B4  1  0.652280  0.652280  0.304560  1.0
  B  B5  1  0.347720  0.347720  0.695440  1.0
