# generated using pymatgen
data_Sm3Hg
_symmetry_space_group_name_H-M   'P 1'
_cell_length_a   7.03764585
_cell_length_b   7.03764533
_cell_length_c   5.50202354
_cell_angle_alpha   90.00000000
_cell_angle_beta   90.00000000
_cell_angle_gamma   120.00000251
_symmetry_Int_Tables_number   1
_chemical_formula_structural   Sm3Hg
_chemical_formula_sum   'Sm6 Hg2'
_cell_volume   235.99774300
_cell_formula_units_Z   2
loop_
 _symmetry_equiv_pos_site_id
 _symmetry_equiv_pos_as_xyz
  1  'x, y, z'
loop_
 _atom_site_type_symbol
 _atom_site_label
 _atom_site_symmetry_multiplicity
 _atom_site_fract_x
 _atom_site_fract_y
 _atom_site_fract_z
 _atom_site_occupancy
  Sm  Sm1  1  0.174260  0.348521  0.250326  1.0
  Sm  Sm2  1  0.651480  0.825740  0.250326  1.0
  Sm  Sm3  1  0.174260  0.825740  0.250326  1.0
  Sm  Sm4  1  0.825740  0.651480  0.749675  1.0
  Sm  Sm5  1  0.348521  0.174260  0.749675  1.0
  Sm  Sm6  1  0.825738  0.174260  0.749675  1.0
  Hg  Hg7  1  0.333334  0.666667  0.750106  1.0
  Hg  Hg8  1  0.666666  0.333332  0.249895  1.0
