# generated using pymatgen
data_Sn7Ir5
_symmetry_space_group_name_H-M   'P 1'
_cell_length_a   6.54765310
_cell_length_b   6.95418282
_cell_length_c   6.95418282
_cell_angle_alpha   77.19549370
_cell_angle_beta   61.91565437
_cell_angle_gamma   61.91565434
_symmetry_Int_Tables_number   1
_chemical_formula_structural   Sn7Ir5
_chemical_formula_sum   'Sn7 Ir5'
_cell_volume   246.47146194
_cell_formula_units_Z   1
loop_
 _symmetry_equiv_pos_site_id
 _symmetry_equiv_pos_as_xyz
  1  'x, y, z'
loop_
 _atom_site_type_symbol
 _atom_site_label
 _atom_site_symmetry_multiplicity
 _atom_site_fract_x
 _atom_site_fract_y
 _atom_site_fract_z
 _atom_site_occupancy
  Sn  Sn1  1  0.725967  0.000000  0.570981  1.0
  Sn  Sn2  1  0.296948  0.429019  0.000000  1.0
  Sn  Sn3  1  0.725967  0.570981  0.000000  1.0
  Sn  Sn4  1  0.296948  0.000000  0.429019  1.0
  Sn  Sn5  1  0.414931  0.500000  0.500000  1.0
  Sn  Sn6  1  0.901032  0.000000  0.000000  1.0
  Sn  Sn7  1  0.914931  0.500000  0.500000  1.0
  Ir  Ir8  1  0.933871  0.243484  0.243484  1.0
  Ir  Ir9  1  0.177355  0.756516  0.243484  1.0
  Ir  Ir10  1  0.177355  0.243484  0.756516  1.0
  Ir  Ir11  1  0.420838  0.756516  0.756516  1.0
  Ir  Ir12  1  0.499856  0.000000  0.000000  1.0
