# generated using pymatgen
data_Sc(SiNi)2
_symmetry_space_group_name_H-M   'P 1'
_cell_length_a   3.80300375
_cell_length_b   3.80300356
_cell_length_c   5.51863571
_cell_angle_alpha   110.15495168
_cell_angle_beta   110.15495030
_cell_angle_gamma   89.99999479
_symmetry_Int_Tables_number   1
_chemical_formula_structural   Sc(SiNi)2
_chemical_formula_sum   'Sc1 Si2 Ni2'
_cell_volume   69.69814880
_cell_formula_units_Z   1
loop_
 _symmetry_equiv_pos_site_id
 _symmetry_equiv_pos_as_xyz
  1  'x, y, z'
loop_
 _atom_site_type_symbol
 _atom_site_label
 _atom_site_symmetry_multiplicity
 _atom_site_fract_x
 _atom_site_fract_y
 _atom_site_fract_z
 _atom_site_occupancy
  Sc  Sc1  1  0.000000  0.000000  0.000000  1.0
  Si  Si2  1  0.620143  0.620143  0.240286  1.0
  Si  Si3  1  0.379857  0.379857  0.759714  1.0
  Ni  Ni4  1  0.750000  0.250000  0.500000  1.0
  Ni  Ni5  1  0.250000  0.750000  0.500000  1.0
