# generated using pymatgen
data_CrCuO2
_symmetry_space_group_name_H-M   'P 1'
_cell_length_a   3.04813761
_cell_length_b   11.43686130
_cell_length_c   3.04813706
_cell_angle_alpha   90.00000000
_cell_angle_beta   119.99999406
_cell_angle_gamma   90.00000000
_symmetry_Int_Tables_number   1
_chemical_formula_structural   CrCuO2
_chemical_formula_sum   'Cr2 Cu2 O4'
_cell_volume   92.02515821
_cell_formula_units_Z   2
loop_
 _symmetry_equiv_pos_site_id
 _symmetry_equiv_pos_as_xyz
  1  'x, y, z'
loop_
 _atom_site_type_symbol
 _atom_site_label
 _atom_site_symmetry_multiplicity
 _atom_site_fract_x
 _atom_site_fract_y
 _atom_site_fract_z
 _atom_site_occupancy
  Cr  Cr1  1  0.000000  0.500000  0.000000  1.0
  Cr  Cr2  1  0.000000  0.000000  0.000000  1.0
  Cu  Cu3  1  0.333333  0.749994  0.666666  1.0
  Cu  Cu4  1  0.666666  0.250006  0.333333  1.0
  O  O5  1  0.666666  0.411676  0.333333  1.0
  O  O6  1  0.333333  0.911672  0.666666  1.0
  O  O7  1  0.333333  0.588325  0.666666  1.0
  O  O8  1  0.666666  0.088328  0.333333  1.0
