# generated using pymatgen
data_CaTa2O6
_symmetry_space_group_name_H-M   'P 1'
_cell_length_a   7.93367620
_cell_length_b   5.60995624
_cell_length_c   5.60995624
_cell_angle_alpha   60.00000000
_cell_angle_beta   45.00000000
_cell_angle_gamma   45.00000000
_symmetry_Int_Tables_number   1
_chemical_formula_structural   CaTa2O6
_chemical_formula_sum   'Ca1 Ta2 O6'
_cell_volume   124.84277771
_cell_formula_units_Z   1
loop_
 _symmetry_equiv_pos_site_id
 _symmetry_equiv_pos_as_xyz
  1  'x, y, z'
loop_
 _atom_site_type_symbol
 _atom_site_label
 _atom_site_symmetry_multiplicity
 _atom_site_fract_x
 _atom_site_fract_y
 _atom_site_fract_z
 _atom_site_occupancy
  Ca  Ca1  1  0.500000  0.000000  0.000000  1.0
  Ta  Ta2  1  0.250000  0.500000  0.500000  1.0
  Ta  Ta3  1  0.750000  0.500000  0.500000  1.0
  O  O4  1  0.500000  0.500000  0.000000  1.0
  O  O5  1  0.500000  0.500000  0.500000  1.0
  O  O6  1  0.000000  0.500000  0.000000  1.0
  O  O7  1  0.500000  0.000000  0.500000  1.0
  O  O8  1  0.000000  0.500000  0.500000  1.0
  O  O9  1  0.000000  0.000000  0.500000  1.0
