# generated using pymatgen
data_Cr3B4
_symmetry_space_group_name_H-M   'P 1'
_cell_length_a   2.94284456
_cell_length_b   2.91860012
_cell_length_c   6.84315070
_cell_angle_alpha   102.30879678
_cell_angle_beta   102.41676929
_cell_angle_gamma   89.99999996
_symmetry_Int_Tables_number   1
_chemical_formula_structural   Cr3B4
_chemical_formula_sum   'Cr3 B4'
_cell_volume   56.01669298
_cell_formula_units_Z   1
loop_
 _symmetry_equiv_pos_site_id
 _symmetry_equiv_pos_as_xyz
  1  'x, y, z'
loop_
 _atom_site_type_symbol
 _atom_site_label
 _atom_site_symmetry_multiplicity
 _atom_site_fract_x
 _atom_site_fract_y
 _atom_site_fract_z
 _atom_site_occupancy
  Cr  Cr1  1  0.185991  0.185889  0.371982  1.0
  Cr  Cr2  1  0.814009  0.814111  0.628018  1.0
  Cr  Cr3  1  0.500000  0.000000  0.000000  1.0
  B  B4  1  0.933622  0.433626  0.867243  1.0
  B  B5  1  0.066378  0.566374  0.132757  1.0
  B  B6  1  0.360179  0.360186  0.720359  1.0
  B  B7  1  0.639821  0.639814  0.279641  1.0
