# generated using pymatgen
data_Ir3W
_symmetry_space_group_name_H-M   'P 1'
_cell_length_a   5.55253495
_cell_length_b   5.55253495
_cell_length_c   4.43467896
_cell_angle_alpha   90.00000000
_cell_angle_beta   90.00000000
_cell_angle_gamma   119.99999997
_symmetry_Int_Tables_number   1
_chemical_formula_structural   Ir3W
_chemical_formula_sum   'Ir6 W2'
_cell_volume   118.40646593
_cell_formula_units_Z   2
loop_
 _symmetry_equiv_pos_site_id
 _symmetry_equiv_pos_as_xyz
  1  'x, y, z'
loop_
 _atom_site_type_symbol
 _atom_site_label
 _atom_site_symmetry_multiplicity
 _atom_site_fract_x
 _atom_site_fract_y
 _atom_site_fract_z
 _atom_site_occupancy
  Ir  Ir1  1  0.666940  0.833470  0.750000  1.0
  Ir  Ir2  1  0.333060  0.166530  0.250000  1.0
  Ir  Ir3  1  0.833470  0.166530  0.250000  1.0
  Ir  Ir4  1  0.166530  0.333060  0.750000  1.0
  Ir  Ir5  1  0.166530  0.833470  0.750000  1.0
  Ir  Ir6  1  0.833470  0.666940  0.250000  1.0
  W  W7  1  0.666667  0.333333  0.750000  1.0
  W  W8  1  0.333333  0.666667  0.250000  1.0
