# generated using pymatgen
data_CuAgS
_symmetry_space_group_name_H-M   'P 1'
_cell_length_a   3.93823685
_cell_length_b   3.93823685
_cell_length_c   8.45477093
_cell_angle_alpha   90.00000000
_cell_angle_beta   90.00000000
_cell_angle_gamma   119.51807823
_symmetry_Int_Tables_number   1
_chemical_formula_structural   CuAgS
_chemical_formula_sum   'Cu2 Ag2 S2'
_cell_volume   114.11026862
_cell_formula_units_Z   2
loop_
 _symmetry_equiv_pos_site_id
 _symmetry_equiv_pos_as_xyz
  1  'x, y, z'
loop_
 _atom_site_type_symbol
 _atom_site_label
 _atom_site_symmetry_multiplicity
 _atom_site_fract_x
 _atom_site_fract_y
 _atom_site_fract_z
 _atom_site_occupancy
  Cu  Cu1  1  0.477704  0.522296  0.750985  1.0
  Cu  Cu2  1  0.522296  0.477704  0.250985  1.0
  Ag  Ag3  1  0.999753  0.000247  0.001076  1.0
  Ag  Ag4  1  0.000247  0.999753  0.501076  1.0
  S  S5  1  0.183615  0.816385  0.250939  1.0
  S  S6  1  0.816385  0.183615  0.750939  1.0
