# generated using pymatgen
data_Zr(SiNi)2
_symmetry_space_group_name_H-M   'P 1'
_cell_length_a   3.75883674
_cell_length_b   3.75883661
_cell_length_c   5.56092613
_cell_angle_alpha   109.75316009
_cell_angle_beta   109.75315907
_cell_angle_gamma   90.00000320
_symmetry_Int_Tables_number   1
_chemical_formula_structural   Zr(SiNi)2
_chemical_formula_sum   'Zr1 Si2 Ni2'
_cell_volume   69.01401867
_cell_formula_units_Z   1
loop_
 _symmetry_equiv_pos_site_id
 _symmetry_equiv_pos_as_xyz
  1  'x, y, z'
loop_
 _atom_site_type_symbol
 _atom_site_label
 _atom_site_symmetry_multiplicity
 _atom_site_fract_x
 _atom_site_fract_y
 _atom_site_fract_z
 _atom_site_occupancy
  Zr  Zr1  1  0.000000  0.000000  0.000000  1.0
  Si  Si2  1  0.619332  0.619332  0.238662  1.0
  Si  Si3  1  0.380668  0.380668  0.761338  1.0
  Ni  Ni4  1  0.250000  0.750000  0.500000  1.0
  Ni  Ni5  1  0.750000  0.250000  0.500000  1.0
