# generated using pymatgen
data_Sr2YReO6
_symmetry_space_group_name_H-M   'P 1'
_cell_length_a   5.90878653
_cell_length_b   5.90878652
_cell_length_c   5.90878652
_cell_angle_alpha   60.00000001
_cell_angle_beta   60.00000004
_cell_angle_gamma   59.99999996
_symmetry_Int_Tables_number   1
_chemical_formula_structural   Sr2YReO6
_chemical_formula_sum   'Sr2 Y1 Re1 O6'
_cell_volume   145.87467502
_cell_formula_units_Z   1
loop_
 _symmetry_equiv_pos_site_id
 _symmetry_equiv_pos_as_xyz
  1  'x, y, z'
loop_
 _atom_site_type_symbol
 _atom_site_label
 _atom_site_symmetry_multiplicity
 _atom_site_fract_x
 _atom_site_fract_y
 _atom_site_fract_z
 _atom_site_occupancy
  Sr  Sr1  1  0.250000  0.250000  0.250000  1.0
  Sr  Sr2  1  0.750000  0.750000  0.750000  1.0
  Y  Y3  1  0.500000  0.500000  0.500000  1.0
  Re  Re4  1  0.000000  0.000000  0.000000  1.0
  O  O5  1  0.235704  0.764296  0.764296  1.0
  O  O6  1  0.235704  0.764296  0.235704  1.0
  O  O7  1  0.764296  0.235704  0.764296  1.0
  O  O8  1  0.235704  0.235704  0.764296  1.0
  O  O9  1  0.764296  0.235704  0.235704  1.0
  O  O10  1  0.764296  0.764296  0.235704  1.0
