# generated using pymatgen
data_K3N
_symmetry_space_group_name_H-M   'P 1'
_cell_length_a   7.74924010
_cell_length_b   7.74924009
_cell_length_c   7.20620458
_cell_angle_alpha   90.00000000
_cell_angle_beta   90.00000000
_cell_angle_gamma   120.00000002
_symmetry_Int_Tables_number   1
_chemical_formula_structural   K3N
_chemical_formula_sum   'K6 N2'
_cell_volume   374.76191774
_cell_formula_units_Z   2
loop_
 _symmetry_equiv_pos_site_id
 _symmetry_equiv_pos_as_xyz
  1  'x, y, z'
loop_
 _atom_site_type_symbol
 _atom_site_label
 _atom_site_symmetry_multiplicity
 _atom_site_fract_x
 _atom_site_fract_y
 _atom_site_fract_z
 _atom_site_occupancy
  K  K1  1  0.000000  0.735633  0.750000  1.0
  K  K2  1  0.000000  0.264367  0.250000  1.0
  K  K3  1  0.735633  0.735633  0.250000  1.0
  K  K4  1  0.735633  0.000000  0.750000  1.0
  K  K5  1  0.264367  0.264367  0.750000  1.0
  K  K6  1  0.264367  0.000000  0.250000  1.0
  N  N7  1  0.000000  0.000000  0.500000  1.0
  N  N8  1  0.000000  0.000000  0.000000  1.0
