# generated using pymatgen
data_CrGa3P4
_symmetry_space_group_name_H-M   'P 1'
_cell_length_a   5.49118407
_cell_length_b   5.49118407
_cell_length_c   5.49118407
_cell_angle_alpha   90.00000000
_cell_angle_beta   90.00000000
_cell_angle_gamma   90.00000000
_symmetry_Int_Tables_number   1
_chemical_formula_structural   CrGa3P4
_chemical_formula_sum   'Cr1 Ga3 P4'
_cell_volume   165.57623606
_cell_formula_units_Z   1
loop_
 _symmetry_equiv_pos_site_id
 _symmetry_equiv_pos_as_xyz
  1  'x, y, z'
loop_
 _atom_site_type_symbol
 _atom_site_label
 _atom_site_symmetry_multiplicity
 _atom_site_fract_x
 _atom_site_fract_y
 _atom_site_fract_z
 _atom_site_occupancy
  Cr  Cr1  1  0.000000  0.000000  0.000000  1.0
  Ga  Ga2  1  0.000000  0.500000  0.500000  1.0
  Ga  Ga3  1  0.500000  0.000000  0.500000  1.0
  Ga  Ga4  1  0.500000  0.500000  0.000000  1.0
  P  P5  1  0.246277  0.246277  0.246277  1.0
  P  P6  1  0.753723  0.753723  0.246277  1.0
  P  P7  1  0.246277  0.753723  0.753723  1.0
  P  P8  1  0.753723  0.246277  0.753723  1.0
