# generated using pymatgen
data_LiC6
_symmetry_space_group_name_H-M   'P 1'
_cell_length_a   3.74536771
_cell_length_b   4.32329358
_cell_length_c   4.32329358
_cell_angle_alpha   119.99999693
_cell_angle_beta   90.00000000
_cell_angle_gamma   90.00000000
_symmetry_Int_Tables_number   1
_chemical_formula_structural   LiC6
_chemical_formula_sum   'Li1 C6'
_cell_volume   60.62539246
_cell_formula_units_Z   1
loop_
 _symmetry_equiv_pos_site_id
 _symmetry_equiv_pos_as_xyz
  1  'x, y, z'
loop_
 _atom_site_type_symbol
 _atom_site_label
 _atom_site_symmetry_multiplicity
 _atom_site_fract_x
 _atom_site_fract_y
 _atom_site_fract_z
 _atom_site_occupancy
  Li  Li1  1  0.000000  0.000000  0.000000  1.0
  C  C2  1  0.500000  0.000000  0.333550  1.0
  C  C3  1  0.500000  0.333550  0.000000  1.0
  C  C4  1  0.500000  0.666450  0.666450  1.0
  C  C5  1  0.500000  0.000000  0.666450  1.0
  C  C6  1  0.500000  0.666450  0.000000  1.0
  C  C7  1  0.500000  0.333550  0.333550  1.0
