# generated using pymatgen
data_Sr2TaCrO6
_symmetry_space_group_name_H-M   'P 1'
_cell_length_a   5.65225266
_cell_length_b   5.65225266
_cell_length_c   5.65225266
_cell_angle_alpha   60.00000000
_cell_angle_beta   59.99999999
_cell_angle_gamma   59.99999997
_symmetry_Int_Tables_number   1
_chemical_formula_structural   Sr2TaCrO6
_chemical_formula_sum   'Sr2 Ta1 Cr1 O6'
_cell_volume   127.68788774
_cell_formula_units_Z   1
loop_
 _symmetry_equiv_pos_site_id
 _symmetry_equiv_pos_as_xyz
  1  'x, y, z'
loop_
 _atom_site_type_symbol
 _atom_site_label
 _atom_site_symmetry_multiplicity
 _atom_site_fract_x
 _atom_site_fract_y
 _atom_site_fract_z
 _atom_site_occupancy
  Sr  Sr1  1  0.250001  0.249999  0.250000  1.0
  Sr  Sr2  1  0.749999  0.750000  0.749999  1.0
  Ta  Ta3  1  0.500001  0.500001  0.500000  1.0
  Cr  Cr4  1  0.000000  0.000000  0.000000  1.0
  O  O5  1  0.250936  0.749064  0.749063  1.0
  O  O6  1  0.250936  0.749064  0.250937  1.0
  O  O7  1  0.749064  0.250936  0.749063  1.0
  O  O8  1  0.250937  0.250936  0.749064  1.0
  O  O9  1  0.749064  0.250936  0.250937  1.0
  O  O10  1  0.749063  0.749064  0.250938  1.0
