# generated using pymatgen
data_Li6OsN4
_symmetry_space_group_name_H-M   'P 1'
_cell_length_a   6.75361218
_cell_length_b   6.75361218
_cell_length_c   4.82092848
_cell_angle_alpha   90.00000000
_cell_angle_beta   90.00000000
_cell_angle_gamma   90.00000000
_symmetry_Int_Tables_number   1
_chemical_formula_structural   Li6OsN4
_chemical_formula_sum   'Li12 Os2 N8'
_cell_volume   219.88870660
_cell_formula_units_Z   2
loop_
 _symmetry_equiv_pos_site_id
 _symmetry_equiv_pos_as_xyz
  1  'x, y, z'
loop_
 _atom_site_type_symbol
 _atom_site_label
 _atom_site_symmetry_multiplicity
 _atom_site_fract_x
 _atom_site_fract_y
 _atom_site_fract_z
 _atom_site_occupancy
  Li  Li1  1  0.000000  0.500000  0.611831  1.0
  Li  Li2  1  0.500000  0.000000  0.888169  1.0
  Li  Li3  1  0.500000  0.000000  0.388169  1.0
  Li  Li4  1  0.000000  0.500000  0.111831  1.0
  Li  Li5  1  0.210460  0.210460  0.500000  1.0
  Li  Li6  1  0.789540  0.789540  0.500000  1.0
  Li  Li7  1  0.710460  0.710460  0.000000  1.0
  Li  Li8  1  0.289540  0.289540  0.000000  1.0
  Li  Li9  1  0.789540  0.210460  0.500000  1.0
  Li  Li10  1  0.210460  0.789540  0.500000  1.0
  Li  Li11  1  0.289540  0.710460  0.000000  1.0
  Li  Li12  1  0.710460  0.289540  0.000000  1.0
  Os  Os13  1  0.500000  0.500000  0.500000  1.0
  Os  Os14  1  0.000000  0.000000  0.000000  1.0
  N  N15  1  0.248365  0.500000  0.329539  1.0
  N  N16  1  0.751635  0.500000  0.329539  1.0
  N  N17  1  0.748365  0.000000  0.170461  1.0
  N  N18  1  0.251635  0.000000  0.170461  1.0
  N  N19  1  0.500000  0.248365  0.670461  1.0
  N  N20  1  0.500000  0.751635  0.670461  1.0
  N  N21  1  0.000000  0.748365  0.829539  1.0
  N  N22  1  0.000000  0.251635  0.829539  1.0
