# generated using pymatgen
data_NaLi2N
_symmetry_space_group_name_H-M   'P 1'
_cell_length_a   5.10581098
_cell_length_b   5.10580962
_cell_length_c   4.12704561
_cell_angle_alpha   90.00000000
_cell_angle_beta   90.00000000
_cell_angle_gamma   119.93001397
_symmetry_Int_Tables_number   1
_chemical_formula_structural   NaLi2N
_chemical_formula_sum   'Na1 Li2 N1'
_cell_volume   93.24060745
_cell_formula_units_Z   1
loop_
 _symmetry_equiv_pos_site_id
 _symmetry_equiv_pos_as_xyz
  1  'x, y, z'
loop_
 _atom_site_type_symbol
 _atom_site_label
 _atom_site_symmetry_multiplicity
 _atom_site_fract_x
 _atom_site_fract_y
 _atom_site_fract_z
 _atom_site_occupancy
  Na  Na1  1  0.500000  0.500000  0.500000  1.0
  Li  Li2  1  0.833235  0.166765  0.500000  1.0
  Li  Li3  1  0.166765  0.833235  0.500000  1.0
  N  N4  1  0.500000  0.500000  0.000000  1.0
