# generated using pymatgen
data_Sr8Fe8O23
_symmetry_space_group_name_H-M   'P 1'
_cell_length_a   7.83676820
_cell_length_b   8.76665478
_cell_length_c   8.76665478
_cell_angle_alpha   78.47606188
_cell_angle_beta   63.45089981
_cell_angle_gamma   63.45089981
_symmetry_Int_Tables_number   1
_chemical_formula_structural   Sr8Fe8O23
_chemical_formula_sum   'Sr8 Fe8 O23'
_cell_volume   481.96517880
_cell_formula_units_Z   1
loop_
 _symmetry_equiv_pos_site_id
 _symmetry_equiv_pos_as_xyz
  1  'x, y, z'
loop_
 _atom_site_type_symbol
 _atom_site_label
 _atom_site_symmetry_multiplicity
 _atom_site_fract_x
 _atom_site_fract_y
 _atom_site_fract_z
 _atom_site_occupancy
  Sr  Sr1  1  0.247625  0.252375  0.252375  1.0
  Sr  Sr2  1  0.500000  0.747625  0.252375  1.0
  Sr  Sr3  1  0.500000  0.252375  0.747625  1.0
  Sr  Sr4  1  0.752375  0.747625  0.747625  1.0
  Sr  Sr5  1  0.740596  0.259404  0.259404  1.0
  Sr  Sr6  1  0.000000  0.740596  0.259404  1.0
  Sr  Sr7  1  0.000000  0.259404  0.740596  1.0
  Sr  Sr8  1  0.259404  0.740596  0.740596  1.0
  Fe  Fe9  1  0.250000  0.500000  0.500000  1.0
  Fe  Fe10  1  0.750000  0.500000  0.500000  1.0
  Fe  Fe11  1  0.000000  0.000000  0.500000  1.0
  Fe  Fe12  1  0.500000  0.500000  0.000000  1.0
  Fe  Fe13  1  0.000000  0.500000  0.000000  1.0
  Fe  Fe14  1  0.500000  0.000000  0.500000  1.0
  Fe  Fe15  1  0.744547  0.000000  0.000000  1.0
  Fe  Fe16  1  0.255453  0.000000  0.000000  1.0
  O  O17  1  0.000000  0.500000  0.500000  1.0
  O  O18  1  0.500000  0.500000  0.500000  1.0
  O  O19  1  0.875252  0.500000  0.249497  1.0
  O  O20  1  0.124748  0.750503  0.500000  1.0
  O  O21  1  0.375252  0.249497  0.500000  1.0
  O  O22  1  0.624748  0.500000  0.750503  1.0
  O  O23  1  0.124748  0.500000  0.750503  1.0
  O  O24  1  0.875252  0.249497  0.500000  1.0
  O  O25  1  0.624748  0.750503  0.500000  1.0
  O  O26  1  0.375252  0.500000  0.249497  1.0
  O  O27  1  0.263732  0.000000  0.472536  1.0
  O  O28  1  0.736268  0.527464  0.000000  1.0
  O  O29  1  0.263732  0.472536  0.000000  1.0
  O  O30  1  0.736268  0.000000  0.527464  1.0
  O  O31  1  0.901898  0.759472  0.000000  1.0
  O  O32  1  0.661370  0.240528  0.000000  1.0
  O  O33  1  0.500000  0.000000  0.000000  1.0
  O  O34  1  0.338630  0.000000  0.759472  1.0
  O  O35  1  0.098102  0.240528  0.000000  1.0
  O  O36  1  0.338630  0.759472  0.000000  1.0
  O  O37  1  0.098102  0.000000  0.240528  1.0
  O  O38  1  0.661370  0.000000  0.240528  1.0
  O  O39  1  0.901898  0.000000  0.759472  1.0
