# generated using pymatgen
data_Na4CO4
_symmetry_space_group_name_H-M   'P 1'
_cell_length_a   4.73854389
_cell_length_b   4.73852792
_cell_length_c   4.73856665
_cell_angle_alpha   89.99900040
_cell_angle_beta   89.99962674
_cell_angle_gamma   89.99993809
_symmetry_Int_Tables_number   1
_chemical_formula_structural   Na4CO4
_chemical_formula_sum   'Na4 C1 O4'
_cell_volume   106.39846070
_cell_formula_units_Z   1
loop_
 _symmetry_equiv_pos_site_id
 _symmetry_equiv_pos_as_xyz
  1  'x, y, z'
loop_
 _atom_site_type_symbol
 _atom_site_label
 _atom_site_symmetry_multiplicity
 _atom_site_fract_x
 _atom_site_fract_y
 _atom_site_fract_z
 _atom_site_occupancy
  Na  Na1  1  0.219099  0.219096  0.780899  1.0
  Na  Na2  1  0.219097  0.780900  0.219100  1.0
  Na  Na3  1  0.780897  0.780902  0.780898  1.0
  Na  Na4  1  0.780900  0.219101  0.219100  1.0
  C  C5  1  0.500001  0.500000  0.500001  1.0
  O  O6  1  0.322833  0.322832  0.322835  1.0
  O  O7  1  0.677171  0.322829  0.677170  1.0
  O  O8  1  0.322831  0.677168  0.677168  1.0
  O  O9  1  0.677171  0.677172  0.322829  1.0
