# generated using pymatgen
data_CaC2
_symmetry_space_group_name_H-M   'P 1'
_cell_length_a   3.88653751
_cell_length_b   3.88653751
_cell_length_c   4.21923434
_cell_angle_alpha   117.42414353
_cell_angle_beta   117.42414353
_cell_angle_gamma   90.00000000
_symmetry_Int_Tables_number   1
_chemical_formula_structural   CaC2
_chemical_formula_sum   'Ca1 C2'
_cell_volume   48.35861748
_cell_formula_units_Z   1
loop_
 _symmetry_equiv_pos_site_id
 _symmetry_equiv_pos_as_xyz
  1  'x, y, z'
loop_
 _atom_site_type_symbol
 _atom_site_label
 _atom_site_symmetry_multiplicity
 _atom_site_fract_x
 _atom_site_fract_y
 _atom_site_fract_z
 _atom_site_occupancy
  Ca  Ca1  1  0.000000  0.000000  0.000000  1.0
  C  C2  1  0.401403  0.401403  0.802807  1.0
  C  C3  1  0.598597  0.598597  0.197193  1.0
