# generated using pymatgen
data_Bi2O3
_symmetry_space_group_name_H-M   'P 1'
_cell_length_a   3.87883669
_cell_length_b   3.87905514
_cell_length_c   6.02267420
_cell_angle_alpha   90.00000003
_cell_angle_beta   89.99712100
_cell_angle_gamma   120.00185587
_symmetry_Int_Tables_number   1
_chemical_formula_structural   Bi2O3
_chemical_formula_sum   'Bi2 O3'
_cell_volume   78.47644611
_cell_formula_units_Z   1
loop_
 _symmetry_equiv_pos_site_id
 _symmetry_equiv_pos_as_xyz
  1  'x, y, z'
loop_
 _atom_site_type_symbol
 _atom_site_label
 _atom_site_symmetry_multiplicity
 _atom_site_fract_x
 _atom_site_fract_y
 _atom_site_fract_z
 _atom_site_occupancy
  Bi  Bi1  1  0.666624  0.333312  0.756048  1.0
  Bi  Bi2  1  0.333376  0.666688  0.243952  1.0
  O  O3  1  0.666646  0.333323  0.367948  1.0
  O  O4  1  0.333354  0.666677  0.632052  1.0
  O  O5  1  0.000000  0.000000  0.000000  1.0
