# generated using pymatgen
data_Sr4Bi2O
_symmetry_space_group_name_H-M   'P 1'
_cell_length_a   5.06418682
_cell_length_b   5.06418682
_cell_length_c   9.55854319
_cell_angle_alpha   105.36123043
_cell_angle_beta   105.36123043
_cell_angle_gamma   90.00000000
_symmetry_Int_Tables_number   1
_chemical_formula_structural   Sr4Bi2O
_chemical_formula_sum   'Sr4 Bi2 O1'
_cell_volume   227.28590253
_cell_formula_units_Z   1
loop_
 _symmetry_equiv_pos_site_id
 _symmetry_equiv_pos_as_xyz
  1  'x, y, z'
loop_
 _atom_site_type_symbol
 _atom_site_label
 _atom_site_symmetry_multiplicity
 _atom_site_fract_x
 _atom_site_fract_y
 _atom_site_fract_z
 _atom_site_occupancy
  Sr  Sr1  1  0.167043  0.167043  0.334087  1.0
  Sr  Sr2  1  0.832957  0.832957  0.665913  1.0
  Sr  Sr3  1  0.000000  0.500000  0.000000  1.0
  Sr  Sr4  1  0.500000  0.000000  0.000000  1.0
  Bi  Bi5  1  0.361290  0.361290  0.722579  1.0
  Bi  Bi6  1  0.638710  0.638710  0.277421  1.0
  O  O7  1  0.000000  0.000000  0.000000  1.0
