# generated using pymatgen
data_Cs2LiGaF6
_symmetry_space_group_name_H-M   'P 1'
_cell_length_a   6.36087573
_cell_length_b   6.36087573
_cell_length_c   5.17959732
_cell_angle_alpha   90.00000000
_cell_angle_beta   90.00000000
_cell_angle_gamma   120.00000005
_symmetry_Int_Tables_number   1
_chemical_formula_structural   Cs2LiGaF6
_chemical_formula_sum   'Cs2 Li1 Ga1 F6'
_cell_volume   181.49323887
_cell_formula_units_Z   1
loop_
 _symmetry_equiv_pos_site_id
 _symmetry_equiv_pos_as_xyz
  1  'x, y, z'
loop_
 _atom_site_type_symbol
 _atom_site_label
 _atom_site_symmetry_multiplicity
 _atom_site_fract_x
 _atom_site_fract_y
 _atom_site_fract_z
 _atom_site_occupancy
  Cs  Cs1  1  0.666667  0.333333  0.731770  1.0
  Cs  Cs2  1  0.333333  0.666667  0.268230  1.0
  Li  Li3  1  0.000000  0.000000  0.500000  1.0
  Ga  Ga4  1  0.000000  0.000000  0.000000  1.0
  F  F5  1  0.276704  0.138352  0.229290  1.0
  F  F6  1  0.861648  0.138352  0.229290  1.0
  F  F7  1  0.861648  0.723296  0.229290  1.0
  F  F8  1  0.138352  0.861648  0.770710  1.0
  F  F9  1  0.138352  0.276704  0.770710  1.0
  F  F10  1  0.723296  0.861648  0.770710  1.0
