# generated using pymatgen
data_Ta
_symmetry_space_group_name_H-M   'P 1'
_cell_length_a   5.34421987
_cell_length_b   10.24957404
_cell_length_c   10.24957404
_cell_angle_alpha   90.00000000
_cell_angle_beta   90.00000000
_cell_angle_gamma   90.00000000
_symmetry_Int_Tables_number   1
_chemical_formula_structural   Ta
_chemical_formula_sum   Ta30
_cell_volume   561.43043437
_cell_formula_units_Z   30
loop_
 _symmetry_equiv_pos_site_id
 _symmetry_equiv_pos_as_xyz
  1  'x, y, z'
loop_
 _atom_site_type_symbol
 _atom_site_label
 _atom_site_symmetry_multiplicity
 _atom_site_fract_x
 _atom_site_fract_y
 _atom_site_fract_z
 _atom_site_occupancy
  Ta  Ta1  1  0.249177  0.371099  0.465188  1.0
  Ta  Ta2  1  0.751284  0.932980  0.760981  1.0
  Ta  Ta3  1  0.998869  0.681326  0.818325  1.0
  Ta  Ta4  1  0.750823  0.465188  0.628901  1.0
  Ta  Ta5  1  0.750823  0.534812  0.371099  1.0
  Ta  Ta6  1  0.251221  0.104870  0.395113  1.0
  Ta  Ta7  1  0.001131  0.818325  0.318674  1.0
  Ta  Ta8  1  0.499698  0.181459  0.681580  1.0
  Ta  Ta9  1  0.751284  0.067020  0.239019  1.0
  Ta  Ta10  1  0.749395  0.261241  0.432809  1.0
  Ta  Ta11  1  0.748779  0.395113  0.895130  1.0
  Ta  Ta12  1  0.248493  0.500000  0.000000  1.0
  Ta  Ta13  1  0.748509  0.871073  0.034521  1.0
  Ta  Ta14  1  0.248716  0.760981  0.067020  1.0
  Ta  Ta15  1  0.249177  0.628901  0.534812  1.0
  Ta  Ta16  1  0.748779  0.604887  0.104870  1.0
  Ta  Ta17  1  0.500302  0.681580  0.818541  1.0
  Ta  Ta18  1  0.500302  0.318420  0.181459  1.0
  Ta  Ta19  1  0.751507  0.000000  0.500000  1.0
  Ta  Ta20  1  0.499698  0.818541  0.318420  1.0
  Ta  Ta21  1  0.998869  0.318674  0.181675  1.0
  Ta  Ta22  1  0.248716  0.239019  0.932980  1.0
  Ta  Ta23  1  0.001131  0.181675  0.681326  1.0
  Ta  Ta24  1  0.250605  0.567191  0.261241  1.0
  Ta  Ta25  1  0.251491  0.965479  0.871073  1.0
  Ta  Ta26  1  0.749395  0.738759  0.567191  1.0
  Ta  Ta27  1  0.251491  0.034521  0.128927  1.0
  Ta  Ta28  1  0.748509  0.128927  0.965479  1.0
  Ta  Ta29  1  0.250605  0.432809  0.738759  1.0
  Ta  Ta30  1  0.251221  0.895130  0.604887  1.0
