# generated using pymatgen
data_MnS
_symmetry_space_group_name_H-M   'P 1'
_cell_length_a   3.63448913
_cell_length_b   6.24233376
_cell_length_c   3.63448897
_cell_angle_alpha   106.92479668
_cell_angle_beta   60.00000632
_cell_angle_gamma   106.92479318
_symmetry_Int_Tables_number   1
_chemical_formula_structural   MnS
_chemical_formula_sum   'Mn2 S2'
_cell_volume   67.25531637
_cell_formula_units_Z   2
loop_
 _symmetry_equiv_pos_site_id
 _symmetry_equiv_pos_as_xyz
  1  'x, y, z'
loop_
 _atom_site_type_symbol
 _atom_site_label
 _atom_site_symmetry_multiplicity
 _atom_site_fract_x
 _atom_site_fract_y
 _atom_site_fract_z
 _atom_site_occupancy
  Mn  Mn1  1  0.000000  0.000000  0.000000  1.0
  Mn  Mn2  1  0.500000  0.500000  0.500000  1.0
  S  S3  1  0.750001  0.250004  0.750001  1.0
  S  S4  1  0.249999  0.749996  0.249999  1.0
