# generated using pymatgen
data_Ho(FeB)2
_symmetry_space_group_name_H-M   'P 1'
_cell_length_a   3.60281846
_cell_length_b   3.60281850
_cell_length_c   5.30990451
_cell_angle_alpha   109.83147011
_cell_angle_beta   109.83147037
_cell_angle_gamma   89.99999577
_symmetry_Int_Tables_number   1
_chemical_formula_structural   Ho(FeB)2
_chemical_formula_sum   'Ho1 Fe2 B2'
_cell_volume   60.47334260
_cell_formula_units_Z   1
loop_
 _symmetry_equiv_pos_site_id
 _symmetry_equiv_pos_as_xyz
  1  'x, y, z'
loop_
 _atom_site_type_symbol
 _atom_site_label
 _atom_site_symmetry_multiplicity
 _atom_site_fract_x
 _atom_site_fract_y
 _atom_site_fract_z
 _atom_site_occupancy
  Ho  Ho1  1  0.000000  0.000000  0.000000  1.0
  Fe  Fe2  1  0.250000  0.750000  0.500000  1.0
  Fe  Fe3  1  0.750000  0.250000  0.500000  1.0
  B  B4  1  0.343227  0.343227  0.686453  1.0
  B  B5  1  0.656773  0.656773  0.313547  1.0
