# generated using pymatgen
data_LiFeO2
_symmetry_space_group_name_H-M   'P 1'
_cell_length_a   5.05234461
_cell_length_b   5.05234460
_cell_length_c   5.05234460
_cell_angle_alpha   33.15939816
_cell_angle_beta   33.15939817
_cell_angle_gamma   33.15939816
_symmetry_Int_Tables_number   1
_chemical_formula_structural   LiFeO2
_chemical_formula_sum   'Li1 Fe1 O2'
_cell_volume   34.34522723
_cell_formula_units_Z   1
loop_
 _symmetry_equiv_pos_site_id
 _symmetry_equiv_pos_as_xyz
  1  'x, y, z'
loop_
 _atom_site_type_symbol
 _atom_site_label
 _atom_site_symmetry_multiplicity
 _atom_site_fract_x
 _atom_site_fract_y
 _atom_site_fract_z
 _atom_site_occupancy
  Li  Li1  1  0.000000  0.000000  0.000000  1.0
  Fe  Fe2  1  0.500000  0.500000  0.500000  1.0
  O  O3  1  0.240420  0.240420  0.240420  1.0
  O  O4  1  0.759580  0.759580  0.759580  1.0
