# generated using pymatgen
data_Rb2MnCl4
_symmetry_space_group_name_H-M   'P 1'
_cell_length_a   5.11032247
_cell_length_b   5.11032246
_cell_length_c   8.91200946
_cell_angle_alpha   106.66108393
_cell_angle_beta   106.66108392
_cell_angle_gamma   90.00000006
_symmetry_Int_Tables_number   1
_chemical_formula_structural   Rb2MnCl4
_chemical_formula_sum   'Rb2 Mn1 Cl4'
_cell_volume   212.75027724
_cell_formula_units_Z   1
loop_
 _symmetry_equiv_pos_site_id
 _symmetry_equiv_pos_as_xyz
  1  'x, y, z'
loop_
 _atom_site_type_symbol
 _atom_site_label
 _atom_site_symmetry_multiplicity
 _atom_site_fract_x
 _atom_site_fract_y
 _atom_site_fract_z
 _atom_site_occupancy
  Rb  Rb1  1  0.357912  0.357912  0.715824  1.0
  Rb  Rb2  1  0.642088  0.642088  0.284176  1.0
  Mn  Mn3  1  0.000000  0.000000  0.000000  1.0
  Cl  Cl4  1  0.844478  0.844478  0.688957  1.0
  Cl  Cl5  1  0.155522  0.155522  0.311043  1.0
  Cl  Cl6  1  0.000000  0.500000  0.000000  1.0
  Cl  Cl7  1  0.500000  0.000000  0.000000  1.0
