# generated using pymatgen
data_Mg2C3
_symmetry_space_group_name_H-M   'P 1'
_cell_length_a   3.74218784
_cell_length_b   5.29149689
_cell_length_c   6.44793035
_cell_angle_alpha   90.00000000
_cell_angle_beta   90.00000000
_cell_angle_gamma   90.00000000
_symmetry_Int_Tables_number   1
_chemical_formula_structural   Mg2C3
_chemical_formula_sum   'Mg4 C6'
_cell_volume   127.68046805
_cell_formula_units_Z   2
loop_
 _symmetry_equiv_pos_site_id
 _symmetry_equiv_pos_as_xyz
  1  'x, y, z'
loop_
 _atom_site_type_symbol
 _atom_site_label
 _atom_site_symmetry_multiplicity
 _atom_site_fract_x
 _atom_site_fract_y
 _atom_site_fract_z
 _atom_site_occupancy
  Mg  Mg1  1  0.500000  0.891598  0.208526  1.0
  Mg  Mg2  1  0.500000  0.108402  0.791474  1.0
  Mg  Mg3  1  0.000000  0.391598  0.291474  1.0
  Mg  Mg4  1  0.000000  0.608402  0.708526  1.0
  C  C5  1  0.500000  0.706565  0.882042  1.0
  C  C6  1  0.500000  0.293435  0.117958  1.0
  C  C7  1  0.000000  0.206565  0.617958  1.0
  C  C8  1  0.000000  0.793435  0.382042  1.0
  C  C9  1  0.000000  0.000000  0.500000  1.0
  C  C10  1  0.500000  0.500000  0.000000  1.0
