# generated using pymatgen
data_YZn12
_symmetry_space_group_name_H-M   'P 1'
_cell_length_a   5.19779954
_cell_length_b   6.81572245
_cell_length_c   6.81572245
_cell_angle_alpha   81.63973415
_cell_angle_beta   67.58517981
_cell_angle_gamma   67.58517981
_symmetry_Int_Tables_number   1
_chemical_formula_structural   YZn12
_chemical_formula_sum   'Y1 Zn12'
_cell_volume   206.35156314
_cell_formula_units_Z   1
loop_
 _symmetry_equiv_pos_site_id
 _symmetry_equiv_pos_as_xyz
  1  'x, y, z'
loop_
 _atom_site_type_symbol
 _atom_site_label
 _atom_site_symmetry_multiplicity
 _atom_site_fract_x
 _atom_site_fract_y
 _atom_site_fract_z
 _atom_site_occupancy
  Y  Y1  1  0.000000  0.000000  0.000000  1.0
  Zn  Zn2  1  0.716058  0.783942  0.783942  1.0
  Zn  Zn3  1  0.500000  0.000000  0.500000  1.0
  Zn  Zn4  1  0.000000  0.500000  0.000000  1.0
  Zn  Zn5  1  0.500000  0.500000  0.000000  1.0
  Zn  Zn6  1  0.000000  0.000000  0.500000  1.0
  Zn  Zn7  1  0.354589  0.645411  0.645411  1.0
  Zn  Zn8  1  0.000000  0.354589  0.645411  1.0
  Zn  Zn9  1  0.000000  0.645411  0.354589  1.0
  Zn  Zn10  1  0.645411  0.354589  0.354589  1.0
  Zn  Zn11  1  0.283942  0.216058  0.216058  1.0
  Zn  Zn12  1  0.500000  0.783942  0.216058  1.0
  Zn  Zn13  1  0.500000  0.216058  0.783942  1.0
