# generated using pymatgen
data_Rb2HgF4
_symmetry_space_group_name_H-M   'P 1'
_cell_length_a   4.68603600
_cell_length_b   4.68603600
_cell_length_c   7.71568447
_cell_angle_alpha   107.67813545
_cell_angle_beta   107.67813544
_cell_angle_gamma   89.99999994
_symmetry_Int_Tables_number   1
_chemical_formula_structural   Rb2HgF4
_chemical_formula_sum   'Rb2 Hg1 F4'
_cell_volume   153.00873872
_cell_formula_units_Z   1
loop_
 _symmetry_equiv_pos_site_id
 _symmetry_equiv_pos_as_xyz
  1  'x, y, z'
loop_
 _atom_site_type_symbol
 _atom_site_label
 _atom_site_symmetry_multiplicity
 _atom_site_fract_x
 _atom_site_fract_y
 _atom_site_fract_z
 _atom_site_occupancy
  Rb  Rb1  1  0.358717  0.358717  0.717434  1.0
  Rb  Rb2  1  0.641283  0.641283  0.282566  1.0
  Hg  Hg3  1  0.000000  0.000000  0.000000  1.0
  F  F4  1  0.163238  0.163238  0.326477  1.0
  F  F5  1  0.836762  0.836762  0.673523  1.0
  F  F6  1  0.500000  0.000000  0.000000  1.0
  F  F7  1  0.000000  0.500000  0.000000  1.0
