# generated using pymatgen
data_MgCd
_symmetry_space_group_name_H-M   'P 1'
_cell_length_a   3.33478068
_cell_length_b   3.33478081
_cell_length_c   14.10256004
_cell_angle_alpha   90.00000000
_cell_angle_beta   90.00000000
_cell_angle_gamma   120.00001067
_symmetry_Int_Tables_number   1
_chemical_formula_structural   MgCd
_chemical_formula_sum   'Mg3 Cd3'
_cell_volume   135.81980819
_cell_formula_units_Z   3
loop_
 _symmetry_equiv_pos_site_id
 _symmetry_equiv_pos_as_xyz
  1  'x, y, z'
loop_
 _atom_site_type_symbol
 _atom_site_label
 _atom_site_symmetry_multiplicity
 _atom_site_fract_x
 _atom_site_fract_y
 _atom_site_fract_z
 _atom_site_occupancy
  Mg  Mg1  1  0.333333  0.666667  0.166667  1.0
  Mg  Mg2  1  0.000000  0.000000  0.500000  1.0
  Mg  Mg3  1  0.666667  0.333333  0.833333  1.0
  Cd  Cd4  1  0.000000  0.000000  0.000000  1.0
  Cd  Cd5  1  0.666667  0.333333  0.333333  1.0
  Cd  Cd6  1  0.333333  0.666667  0.666667  1.0
