# generated using pymatgen
data_Cs2HgF4
_symmetry_space_group_name_H-M   'P 1'
_cell_length_a   4.75323227
_cell_length_b   4.75323227
_cell_length_c   8.06390251
_cell_angle_alpha   107.14091754
_cell_angle_beta   107.14091758
_cell_angle_gamma   89.99999995
_symmetry_Int_Tables_number   1
_chemical_formula_structural   Cs2HgF4
_chemical_formula_sum   'Cs2 Hg1 F4'
_cell_volume   165.60984523
_cell_formula_units_Z   1
loop_
 _symmetry_equiv_pos_site_id
 _symmetry_equiv_pos_as_xyz
  1  'x, y, z'
loop_
 _atom_site_type_symbol
 _atom_site_label
 _atom_site_symmetry_multiplicity
 _atom_site_fract_x
 _atom_site_fract_y
 _atom_site_fract_z
 _atom_site_occupancy
  Cs  Cs1  1  0.357076  0.357076  0.714153  1.0
  Cs  Cs2  1  0.642924  0.642924  0.285847  1.0
  Hg  Hg3  1  0.000000  0.000000  0.000000  1.0
  F  F4  1  0.155128  0.155128  0.310256  1.0
  F  F5  1  0.844872  0.844872  0.689744  1.0
  F  F6  1  0.500000  0.000000  0.000000  1.0
  F  F7  1  0.000000  0.500000  0.000000  1.0
