# generated using pymatgen
data_Tl2Ni3S2
_symmetry_space_group_name_H-M   'P 1'
_cell_length_a   5.53804751
_cell_length_b   5.53804706
_cell_length_c   5.62144819
_cell_angle_alpha   60.48957528
_cell_angle_beta   60.48957211
_cell_angle_gamma   60.00000084
_symmetry_Int_Tables_number   1
_chemical_formula_structural   Tl2Ni3S2
_chemical_formula_sum   'Tl2 Ni3 S2'
_cell_volume   122.80638492
_cell_formula_units_Z   1
loop_
 _symmetry_equiv_pos_site_id
 _symmetry_equiv_pos_as_xyz
  1  'x, y, z'
loop_
 _atom_site_type_symbol
 _atom_site_label
 _atom_site_symmetry_multiplicity
 _atom_site_fract_x
 _atom_site_fract_y
 _atom_site_fract_z
 _atom_site_occupancy
  Tl  Tl1  1  0.000000  0.000000  0.000000  1.0
  Tl  Tl2  1  0.500000  0.500000  0.500000  1.0
  Ni  Ni3  1  0.500000  0.000000  0.500000  1.0
  Ni  Ni4  1  0.000000  0.500000  0.500000  1.0
  Ni  Ni5  1  0.000000  0.000000  0.500000  1.0
  S  S6  1  0.727618  0.727618  0.817145  1.0
  S  S7  1  0.272382  0.272382  0.182855  1.0
