# generated using pymatgen
data_GaCuPt2
_symmetry_space_group_name_H-M   'P 1'
_cell_length_a   4.02029787
_cell_length_b   4.02029019
_cell_length_c   3.57360974
_cell_angle_alpha   90.00009191
_cell_angle_beta   90.00002376
_cell_angle_gamma   90.00000428
_symmetry_Int_Tables_number   1
_chemical_formula_structural   GaCuPt2
_chemical_formula_sum   'Ga1 Cu1 Pt2'
_cell_volume   57.75941117
_cell_formula_units_Z   1
loop_
 _symmetry_equiv_pos_site_id
 _symmetry_equiv_pos_as_xyz
  1  'x, y, z'
loop_
 _atom_site_type_symbol
 _atom_site_label
 _atom_site_symmetry_multiplicity
 _atom_site_fract_x
 _atom_site_fract_y
 _atom_site_fract_z
 _atom_site_occupancy
  Ga  Ga1  1  0.500000  0.499994  0.000000  1.0
  Cu  Cu2  1  0.000000  0.000019  0.000001  1.0
  Pt  Pt3  1  0.500000  0.999995  0.499999  1.0
  Pt  Pt4  1  0.000000  0.499993  0.500000  1.0
