# generated using pymatgen
data_ErAg2
_symmetry_space_group_name_H-M   'P 1'
_cell_length_a   3.73020904
_cell_length_b   3.73020904
_cell_length_c   5.30067909
_cell_angle_alpha   110.60121078
_cell_angle_beta   110.60121070
_cell_angle_gamma   90.00000010
_symmetry_Int_Tables_number   1
_chemical_formula_structural   ErAg2
_chemical_formula_sum   'Er1 Ag2'
_cell_volume   63.97621086
_cell_formula_units_Z   1
loop_
 _symmetry_equiv_pos_site_id
 _symmetry_equiv_pos_as_xyz
  1  'x, y, z'
loop_
 _atom_site_type_symbol
 _atom_site_label
 _atom_site_symmetry_multiplicity
 _atom_site_fract_x
 _atom_site_fract_y
 _atom_site_fract_z
 _atom_site_occupancy
  Er  Er1  1  0.000000  0.000000  0.000000  1.0
  Ag  Ag2  1  0.331590  0.331590  0.663181  1.0
  Ag  Ag3  1  0.668410  0.668410  0.336819  1.0
