# generated using pymatgen
data_Nd3GaN
_symmetry_space_group_name_H-M   'P 1'
_cell_length_a   5.50507383
_cell_length_b   5.50503260
_cell_length_c   5.50506948
_cell_angle_alpha   89.99995389
_cell_angle_beta   89.99971920
_cell_angle_gamma   90.00012104
_symmetry_Int_Tables_number   1
_chemical_formula_structural   Nd3GaN
_chemical_formula_sum   'Nd3 Ga1 N1'
_cell_volume   166.83449363
_cell_formula_units_Z   1
loop_
 _symmetry_equiv_pos_site_id
 _symmetry_equiv_pos_as_xyz
  1  'x, y, z'
loop_
 _atom_site_type_symbol
 _atom_site_label
 _atom_site_symmetry_multiplicity
 _atom_site_fract_x
 _atom_site_fract_y
 _atom_site_fract_z
 _atom_site_occupancy
  Nd  Nd1  1  0.499999  0.500000  0.000000  1.0
  Nd  Nd2  1  0.500000  0.000000  0.500000  1.0
  Nd  Nd3  1  0.000001  0.499999  0.500000  1.0
  Ga  Ga4  1  0.499999  0.500000  0.500000  1.0
  N  N5  1  0.000001  0.000000  0.000000  1.0
