# generated using pymatgen
data_V2CrFe
_symmetry_space_group_name_H-M   'P 1'
_cell_length_a   4.06197173
_cell_length_b   4.06201785
_cell_length_c   4.06199938
_cell_angle_alpha   59.99989255
_cell_angle_beta   60.00005540
_cell_angle_gamma   59.99977427
_symmetry_Int_Tables_number   1
_chemical_formula_structural   V2CrFe
_chemical_formula_sum   'V2 Cr1 Fe1'
_cell_volume   47.39174142
_cell_formula_units_Z   1
loop_
 _symmetry_equiv_pos_site_id
 _symmetry_equiv_pos_as_xyz
  1  'x, y, z'
loop_
 _atom_site_type_symbol
 _atom_site_label
 _atom_site_symmetry_multiplicity
 _atom_site_fract_x
 _atom_site_fract_y
 _atom_site_fract_z
 _atom_site_occupancy
  V  V1  1  0.499999  0.500000  0.500001  1.0
  V  V2  1  0.999999  0.999997  0.000001  1.0
  Cr  Cr3  1  0.250000  0.250002  0.249994  1.0
  Fe  Fe4  1  0.750000  0.749999  0.750002  1.0
