# generated using pymatgen
data_HfZnIr2
_symmetry_space_group_name_H-M   'P 1'
_cell_length_a   4.46805180
_cell_length_b   4.46805014
_cell_length_c   4.46805146
_cell_angle_alpha   59.99996634
_cell_angle_beta   59.99998513
_cell_angle_gamma   59.99996602
_symmetry_Int_Tables_number   1
_chemical_formula_structural   HfZnIr2
_chemical_formula_sum   'Hf1 Zn1 Ir2'
_cell_volume   63.07236781
_cell_formula_units_Z   1
loop_
 _symmetry_equiv_pos_site_id
 _symmetry_equiv_pos_as_xyz
  1  'x, y, z'
loop_
 _atom_site_type_symbol
 _atom_site_label
 _atom_site_symmetry_multiplicity
 _atom_site_fract_x
 _atom_site_fract_y
 _atom_site_fract_z
 _atom_site_occupancy
  Hf  Hf1  1  0.250000  0.250000  0.250000  1.0
  Zn  Zn2  1  0.750000  0.750000  0.750000  1.0
  Ir  Ir3  1  0.000000  0.000000  0.000000  1.0
  Ir  Ir4  1  0.499998  0.499999  0.499998  1.0
