# generated using pymatgen
data_Li2PmIn
_symmetry_space_group_name_H-M   'P 1'
_cell_length_a   4.93703464
_cell_length_b   4.93703291
_cell_length_c   4.93703664
_cell_angle_alpha   59.99984431
_cell_angle_beta   59.99988117
_cell_angle_gamma   59.99995215
_symmetry_Int_Tables_number   1
_chemical_formula_structural   Li2PmIn
_chemical_formula_sum   'Li2 Pm1 In1'
_cell_volume   85.09077732
_cell_formula_units_Z   1
loop_
 _symmetry_equiv_pos_site_id
 _symmetry_equiv_pos_as_xyz
  1  'x, y, z'
loop_
 _atom_site_type_symbol
 _atom_site_label
 _atom_site_symmetry_multiplicity
 _atom_site_fract_x
 _atom_site_fract_y
 _atom_site_fract_z
 _atom_site_occupancy
  Li  Li1  1  0.999999  0.000000  0.999999  1.0
  Li  Li2  1  0.500000  0.500000  0.500000  1.0
  Pm  Pm3  1  0.750001  0.750000  0.749999  1.0
  In  In4  1  0.250000  0.249999  0.250002  1.0
