# generated using pymatgen
data_CoF3
_symmetry_space_group_name_H-M   'P 1'
_cell_length_a   5.44852267
_cell_length_b   5.44852275
_cell_length_c   6.67980811
_cell_angle_alpha   90.00000000
_cell_angle_beta   90.00000000
_cell_angle_gamma   119.99999946
_symmetry_Int_Tables_number   1
_chemical_formula_structural   CoF3
_chemical_formula_sum   'Co3 F9'
_cell_volume   171.73236532
_cell_formula_units_Z   3
loop_
 _symmetry_equiv_pos_site_id
 _symmetry_equiv_pos_as_xyz
  1  'x, y, z'
loop_
 _atom_site_type_symbol
 _atom_site_label
 _atom_site_symmetry_multiplicity
 _atom_site_fract_x
 _atom_site_fract_y
 _atom_site_fract_z
 _atom_site_occupancy
  Co  Co1  1  0.666667  0.333333  0.333309  1.0
  Co  Co2  1  0.333333  0.666667  0.666691  1.0
  Co  Co3  1  0.000000  0.000000  0.000000  1.0
  F  F4  1  0.666656  0.834816  0.833431  1.0
  F  F5  1  0.165184  0.831841  0.833431  1.0
  F  F6  1  0.168159  0.333344  0.833431  1.0
  F  F7  1  0.502816  0.502816  0.500000  1.0
  F  F8  1  0.497184  0.000000  0.500000  1.0
  F  F9  1  0.000000  0.497184  0.500000  1.0
  F  F10  1  0.834816  0.666656  0.166569  1.0
  F  F11  1  0.333344  0.168159  0.166569  1.0
  F  F12  1  0.831841  0.165184  0.166569  1.0
