# generated using pymatgen
data_Pm2MgSn
_symmetry_space_group_name_H-M   'P 1'
_cell_length_a   5.41491359
_cell_length_b   5.41491359
_cell_length_c   5.41491359
_cell_angle_alpha   60.06929019
_cell_angle_beta   60.06929019
_cell_angle_gamma   60.06929019
_symmetry_Int_Tables_number   1
_chemical_formula_structural   Pm2MgSn
_chemical_formula_sum   'Pm2 Mg1 Sn1'
_cell_volume   112.44522797
_cell_formula_units_Z   1
loop_
 _symmetry_equiv_pos_site_id
 _symmetry_equiv_pos_as_xyz
  1  'x, y, z'
loop_
 _atom_site_type_symbol
 _atom_site_label
 _atom_site_symmetry_multiplicity
 _atom_site_fract_x
 _atom_site_fract_y
 _atom_site_fract_z
 _atom_site_occupancy
  Pm  Pm1  1  0.000009  0.000009  0.000009  1.0
  Pm  Pm2  1  0.499987  0.499987  0.499987  1.0
  Mg  Mg3  1  0.249991  0.249991  0.249991  1.0
  Sn  Sn4  1  0.750014  0.750014  0.750014  1.0
