# generated using pymatgen
data_Pm2NiRu
_symmetry_space_group_name_H-M   'P 1'
_cell_length_a   4.93010264
_cell_length_b   4.93010108
_cell_length_c   4.93010190
_cell_angle_alpha   59.99994420
_cell_angle_beta   59.99993941
_cell_angle_gamma   59.99993305
_symmetry_Int_Tables_number   1
_chemical_formula_structural   Pm2NiRu
_chemical_formula_sum   'Pm2 Ni1 Ru1'
_cell_volume   84.73290200
_cell_formula_units_Z   1
loop_
 _symmetry_equiv_pos_site_id
 _symmetry_equiv_pos_as_xyz
  1  'x, y, z'
loop_
 _atom_site_type_symbol
 _atom_site_label
 _atom_site_symmetry_multiplicity
 _atom_site_fract_x
 _atom_site_fract_y
 _atom_site_fract_z
 _atom_site_occupancy
  Pm  Pm1  1  0.000000  0.000000  0.000000  1.0
  Pm  Pm2  1  0.500001  0.500001  0.500001  1.0
  Ni  Ni3  1  0.249999  0.249999  0.249999  1.0
  Ru  Ru4  1  0.749999  0.749999  0.749999  1.0
