# generated using pymatgen
data_Y(Sn3Ru2)2
_symmetry_space_group_name_H-M   'P 1'
_cell_length_a   6.91512559
_cell_length_b   6.91512557
_cell_length_c   6.95908280
_cell_angle_alpha   119.79127254
_cell_angle_beta   119.79127248
_cell_angle_gamma   89.99999877
_symmetry_Int_Tables_number   1
_chemical_formula_structural   Y(Sn3Ru2)2
_chemical_formula_sum   'Y1 Sn6 Ru4'
_cell_volume   236.78523330
_cell_formula_units_Z   1
loop_
 _symmetry_equiv_pos_site_id
 _symmetry_equiv_pos_as_xyz
  1  'x, y, z'
loop_
 _atom_site_type_symbol
 _atom_site_label
 _atom_site_symmetry_multiplicity
 _atom_site_fract_x
 _atom_site_fract_y
 _atom_site_fract_z
 _atom_site_occupancy
  Y  Y1  1  0.000000  0.000000  0.000000  1.0
  Sn  Sn2  1  0.530617  0.882996  0.413613  1.0
  Sn  Sn3  1  0.882996  0.530617  0.413613  1.0
  Sn  Sn4  1  0.117004  0.117004  0.586387  1.0
  Sn  Sn5  1  0.500000  0.000000  0.000000  1.0
  Sn  Sn6  1  0.469383  0.469383  0.586387  1.0
  Sn  Sn7  1  0.000000  0.500000  0.000000  1.0
  Ru  Ru8  1  0.595750  0.249699  0.845450  1.0
  Ru  Ru9  1  0.404250  0.404250  0.154550  1.0
  Ru  Ru10  1  0.249699  0.595750  0.845450  1.0
  Ru  Ru11  1  0.750301  0.750301  0.154550  1.0
