# generated using pymatgen
data_MgZn2
_symmetry_space_group_name_H-M   'P 1'
_cell_length_a   5.22825337
_cell_length_b   5.22825424
_cell_length_c   5.24006803
_cell_angle_alpha   119.92543643
_cell_angle_beta   60.07455962
_cell_angle_gamma   119.99997948
_symmetry_Int_Tables_number   1
_chemical_formula_structural   MgZn2
_chemical_formula_sum   'Mg2 Zn4'
_cell_volume   101.39670684
_cell_formula_units_Z   2
loop_
 _symmetry_equiv_pos_site_id
 _symmetry_equiv_pos_as_xyz
  1  'x, y, z'
loop_
 _atom_site_type_symbol
 _atom_site_label
 _atom_site_symmetry_multiplicity
 _atom_site_fract_x
 _atom_site_fract_y
 _atom_site_fract_z
 _atom_site_occupancy
  Mg  Mg1  1  0.874911  0.458420  0.375262  1.0
  Mg  Mg2  1  0.125087  0.208245  0.624738  1.0
  Zn  Zn3  1  0.503129  0.333334  0.000000  1.0
  Zn  Zn4  1  0.496874  0.830206  0.000000  1.0
  Zn  Zn5  1  0.500000  0.833334  0.500000  1.0
  Zn  Zn6  1  0.999998  0.836460  0.999999  1.0
