# generated using pymatgen
data_SrIn4Pd
_symmetry_space_group_name_H-M   'P 1'
_cell_length_a   4.64453623
_cell_length_b   7.62262861
_cell_length_c   8.96776439
_cell_angle_alpha   90.00000000
_cell_angle_beta   105.00819733
_cell_angle_gamma   90.00000000
_symmetry_Int_Tables_number   1
_chemical_formula_structural   SrIn4Pd
_chemical_formula_sum   'Sr2 In8 Pd2'
_cell_volume   306.66091662
_cell_formula_units_Z   2
loop_
 _symmetry_equiv_pos_site_id
 _symmetry_equiv_pos_as_xyz
  1  'x, y, z'
loop_
 _atom_site_type_symbol
 _atom_site_label
 _atom_site_symmetry_multiplicity
 _atom_site_fract_x
 _atom_site_fract_y
 _atom_site_fract_z
 _atom_site_occupancy
  Sr  Sr1  1  0.875935  0.250000  0.751870  1.0
  Sr  Sr2  1  0.124065  0.750000  0.248130  1.0
  In  In3  1  0.685330  0.051584  0.370659  1.0
  In  In4  1  0.314670  0.948416  0.629341  1.0
  In  In5  1  0.685330  0.448416  0.370659  1.0
  In  In6  1  0.500000  0.000000  0.000000  1.0
  In  In7  1  0.314670  0.551584  0.629341  1.0
  In  In8  1  0.500000  0.500000  0.000000  1.0
  In  In9  1  0.930236  0.750000  0.860472  1.0
  In  In10  1  0.069764  0.250000  0.139528  1.0
  Pd  Pd11  1  0.225612  0.250000  0.451224  1.0
  Pd  Pd12  1  0.774388  0.750000  0.548776  1.0
