# generated using pymatgen
data_BeGeP2
_symmetry_space_group_name_H-M   'P 1'
_cell_length_a   5.22647487
_cell_length_b   5.22647487
_cell_length_c   6.39024271
_cell_angle_alpha   114.13837839
_cell_angle_beta   114.13837839
_cell_angle_gamma   90.00000000
_symmetry_Int_Tables_number   1
_chemical_formula_structural   BeGeP2
_chemical_formula_sum   'Be2 Ge2 P4'
_cell_volume   142.40326461
_cell_formula_units_Z   2
loop_
 _symmetry_equiv_pos_site_id
 _symmetry_equiv_pos_as_xyz
  1  'x, y, z'
loop_
 _atom_site_type_symbol
 _atom_site_label
 _atom_site_symmetry_multiplicity
 _atom_site_fract_x
 _atom_site_fract_y
 _atom_site_fract_z
 _atom_site_occupancy
  Be  Be1  1  0.750000  0.250000  0.500000  1.0
  Be  Be2  1  0.500000  0.500000  0.000000  1.0
  Ge  Ge3  1  0.250000  0.750000  0.500000  1.0
  Ge  Ge4  1  0.000000  0.000000  0.000000  1.0
  P  P5  1  0.846876  0.875000  0.250000  1.0
  P  P6  1  0.403124  0.375000  0.250000  1.0
  P  P7  1  0.125000  0.596876  0.750000  1.0
  P  P8  1  0.625000  0.153124  0.750000  1.0
