# generated using pymatgen
data_LiNbO3
_symmetry_space_group_name_H-M   'P 1'
_cell_length_a   5.54373361
_cell_length_b   5.54373493
_cell_length_c   5.54373823
_cell_angle_alpha   56.75262428
_cell_angle_beta   56.75262374
_cell_angle_gamma   56.75263043
_symmetry_Int_Tables_number   1
_chemical_formula_structural   LiNbO3
_chemical_formula_sum   'Li2 Nb2 O6'
_cell_volume   111.44213547
_cell_formula_units_Z   2
loop_
 _symmetry_equiv_pos_site_id
 _symmetry_equiv_pos_as_xyz
  1  'x, y, z'
loop_
 _atom_site_type_symbol
 _atom_site_label
 _atom_site_symmetry_multiplicity
 _atom_site_fract_x
 _atom_site_fract_y
 _atom_site_fract_z
 _atom_site_occupancy
  Li  Li1  1  0.750021  0.750019  0.750020  1.0
  Li  Li2  1  0.250020  0.250020  0.250020  1.0
  Nb  Nb3  1  0.000073  0.000077  0.000076  1.0
  Nb  Nb4  1  0.500076  0.500078  0.500075  1.0
  O  O5  1  0.870299  0.629558  0.249948  1.0
  O  O6  1  0.249948  0.870298  0.629559  1.0
  O  O7  1  0.129558  0.370299  0.749948  1.0
  O  O8  1  0.370299  0.749948  0.129557  1.0
  O  O9  1  0.749948  0.129557  0.370299  1.0
  O  O10  1  0.629558  0.249947  0.870299  1.0
