# generated using pymatgen
data_ScNiP
_symmetry_space_group_name_H-M   'P 1'
_cell_length_a   4.01213444
_cell_length_b   4.01213635
_cell_length_c   4.01222346
_cell_angle_alpha   60.00056819
_cell_angle_beta   60.00006526
_cell_angle_gamma   60.00032013
_symmetry_Int_Tables_number   1
_chemical_formula_structural   ScNiP
_chemical_formula_sum   'Sc1 Ni1 P1'
_cell_volume   45.66930535
_cell_formula_units_Z   1
loop_
 _symmetry_equiv_pos_site_id
 _symmetry_equiv_pos_as_xyz
  1  'x, y, z'
loop_
 _atom_site_type_symbol
 _atom_site_label
 _atom_site_symmetry_multiplicity
 _atom_site_fract_x
 _atom_site_fract_y
 _atom_site_fract_z
 _atom_site_occupancy
  Sc  Sc1  1  0.500001  0.500003  0.499998  1.0
  Ni  Ni2  1  0.249999  0.249997  0.249999  1.0
  P  P3  1  0.999999  0.000000  0.000003  1.0
