# generated using pymatgen
data_Sb2TeSe2
_symmetry_space_group_name_H-M   'P 1'
_cell_length_a   10.47899721
_cell_length_b   10.47899721
_cell_length_c   10.47899720
_cell_angle_alpha   22.87566003
_cell_angle_beta   22.87566005
_cell_angle_gamma   22.87566003
_symmetry_Int_Tables_number   1
_chemical_formula_structural   Sb2TeSe2
_chemical_formula_sum   'Sb2 Te1 Se2'
_cell_volume   152.58788319
_cell_formula_units_Z   1
loop_
 _symmetry_equiv_pos_site_id
 _symmetry_equiv_pos_as_xyz
  1  'x, y, z'
loop_
 _atom_site_type_symbol
 _atom_site_label
 _atom_site_symmetry_multiplicity
 _atom_site_fract_x
 _atom_site_fract_y
 _atom_site_fract_z
 _atom_site_occupancy
  Sb  Sb1  1  0.389423  0.389423  0.389423  1.0
  Sb  Sb2  1  0.602247  0.602247  0.602247  1.0
  Te  Te3  1  0.210628  0.210628  0.210628  1.0
  Se  Se4  1  0.996326  0.996326  0.996326  1.0
  Se  Se5  1  0.772275  0.772275  0.772275  1.0
