# generated using pymatgen
data_TaGaFe2
_symmetry_space_group_name_H-M   'P 1'
_cell_length_a   4.16250089
_cell_length_b   4.16272128
_cell_length_c   4.16253987
_cell_angle_alpha   59.99428234
_cell_angle_beta   60.00009988
_cell_angle_gamma   59.99143060
_symmetry_Int_Tables_number   1
_chemical_formula_structural   TaGaFe2
_chemical_formula_sum   'Ta1 Ga1 Fe2'
_cell_volume   50.99510697
_cell_formula_units_Z   1
loop_
 _symmetry_equiv_pos_site_id
 _symmetry_equiv_pos_as_xyz
  1  'x, y, z'
loop_
 _atom_site_type_symbol
 _atom_site_label
 _atom_site_symmetry_multiplicity
 _atom_site_fract_x
 _atom_site_fract_y
 _atom_site_fract_z
 _atom_site_occupancy
  Ta  Ta1  1  0.750001  0.750000  0.749999  1.0
  Ga  Ga2  1  0.249997  0.249997  0.250000  1.0
  Fe  Fe3  1  0.999999  0.000001  0.000000  1.0
  Fe  Fe4  1  0.500003  0.500002  0.500001  1.0
