# generated using pymatgen
data_CaSnN2
_symmetry_space_group_name_H-M   'P 1'
_cell_length_a   6.19344576
_cell_length_b   7.70403407
_cell_length_c   5.69174695
_cell_angle_alpha   90.00000000
_cell_angle_beta   90.00000000
_cell_angle_gamma   90.00000000
_symmetry_Int_Tables_number   1
_chemical_formula_structural   CaSnN2
_chemical_formula_sum   'Ca4 Sn4 N8'
_cell_volume   271.57895743
_cell_formula_units_Z   4
loop_
 _symmetry_equiv_pos_site_id
 _symmetry_equiv_pos_as_xyz
  1  'x, y, z'
loop_
 _atom_site_type_symbol
 _atom_site_label
 _atom_site_symmetry_multiplicity
 _atom_site_fract_x
 _atom_site_fract_y
 _atom_site_fract_z
 _atom_site_occupancy
  Ca  Ca1  1  0.584865  0.877126  0.980097  1.0
  Ca  Ca2  1  0.415135  0.122874  0.480097  1.0
  Ca  Ca3  1  0.915135  0.377126  0.480097  1.0
  Ca  Ca4  1  0.084865  0.622874  0.980097  1.0
  Sn  Sn5  1  0.569948  0.372935  0.994615  1.0
  Sn  Sn6  1  0.430052  0.627065  0.494615  1.0
  Sn  Sn7  1  0.930052  0.872935  0.494615  1.0
  Sn  Sn8  1  0.069948  0.127065  0.994615  1.0
  N  N9  1  0.550731  0.395524  0.361426  1.0
  N  N10  1  0.449269  0.604476  0.861426  1.0
  N  N11  1  0.949269  0.895524  0.861426  1.0
  N  N12  1  0.050731  0.104476  0.361426  1.0
  N  N13  1  0.600480  0.854403  0.404862  1.0
  N  N14  1  0.399520  0.145597  0.904862  1.0
  N  N15  1  0.899520  0.354403  0.904862  1.0
  N  N16  1  0.100480  0.645597  0.404862  1.0
