# generated using pymatgen
data_Rb2CN2
_symmetry_space_group_name_H-M   'P 1'
_cell_length_a   6.10457267
_cell_length_b   6.15294937
_cell_length_c   9.61844112
_cell_angle_alpha   71.54547422
_cell_angle_beta   83.54567083
_cell_angle_gamma   70.60616506
_symmetry_Int_Tables_number   1
_chemical_formula_structural   Rb2CN2
_chemical_formula_sum   'Rb6 C3 N6'
_cell_volume   323.24461480
_cell_formula_units_Z   3
loop_
 _symmetry_equiv_pos_site_id
 _symmetry_equiv_pos_as_xyz
  1  'x, y, z'
loop_
 _atom_site_type_symbol
 _atom_site_label
 _atom_site_symmetry_multiplicity
 _atom_site_fract_x
 _atom_site_fract_y
 _atom_site_fract_z
 _atom_site_occupancy
  Rb  Rb1  1  0.710921  0.845282  0.665222  1.0
  Rb  Rb2  1  0.289079  0.154718  0.334778  1.0
  Rb  Rb3  1  0.288841  0.488216  0.668131  1.0
  Rb  Rb4  1  0.711159  0.511784  0.331869  1.0
  Rb  Rb5  1  0.288959  0.821460  0.001482  1.0
  Rb  Rb6  1  0.711041  0.178540  0.998518  1.0
  C  C7  1  0.000000  0.500000  0.000000  1.0
  C  C8  1  0.000023  0.833357  0.333320  1.0
  C  C9  1  0.999977  0.166643  0.666680  1.0
  N  N10  1  0.803647  0.651230  0.998408  1.0
  N  N11  1  0.196353  0.348770  0.001592  1.0
  N  N12  1  0.803611  0.984426  0.331832  1.0
  N  N13  1  0.196389  0.015574  0.668168  1.0
  N  N14  1  0.803589  0.317786  0.665192  1.0
  N  N15  1  0.196411  0.682214  0.334808  1.0
