# generated using pymatgen
data_LiB(CN)4
_symmetry_space_group_name_H-M   'P 1'
_cell_length_a   5.55119549
_cell_length_b   5.55119549
_cell_length_c   5.55119549
_cell_angle_alpha   90.00000000
_cell_angle_beta   90.00000000
_cell_angle_gamma   90.00000000
_symmetry_Int_Tables_number   1
_chemical_formula_structural   LiB(CN)4
_chemical_formula_sum   'Li1 B1 C4 N4'
_cell_volume   171.06437104
_cell_formula_units_Z   1
loop_
 _symmetry_equiv_pos_site_id
 _symmetry_equiv_pos_as_xyz
  1  'x, y, z'
loop_
 _atom_site_type_symbol
 _atom_site_label
 _atom_site_symmetry_multiplicity
 _atom_site_fract_x
 _atom_site_fract_y
 _atom_site_fract_z
 _atom_site_occupancy
  Li  Li1  1  0.500000  0.500000  0.500000  1.0
  B  B2  1  0.000000  0.000000  0.000000  1.0
  C  C3  1  0.834725  0.165275  0.165275  1.0
  C  C4  1  0.165275  0.165275  0.834725  1.0
  C  C5  1  0.165275  0.834725  0.165275  1.0
  C  C6  1  0.834725  0.834725  0.834725  1.0
  N  N7  1  0.713829  0.286171  0.286171  1.0
  N  N8  1  0.286171  0.286171  0.713829  1.0
  N  N9  1  0.286171  0.713829  0.286171  1.0
  N  N10  1  0.713829  0.713829  0.713829  1.0
