# generated using pymatgen
data_ZnTe
_symmetry_space_group_name_H-M   'P 1'
_cell_length_a   4.37263364
_cell_length_b   4.37263390
_cell_length_c   10.70496168
_cell_angle_alpha   90.00000000
_cell_angle_beta   90.00000000
_cell_angle_gamma   119.99999803
_symmetry_Int_Tables_number   1
_chemical_formula_structural   ZnTe
_chemical_formula_sum   'Zn3 Te3'
_cell_volume   177.25641700
_cell_formula_units_Z   3
loop_
 _symmetry_equiv_pos_site_id
 _symmetry_equiv_pos_as_xyz
  1  'x, y, z'
loop_
 _atom_site_type_symbol
 _atom_site_label
 _atom_site_symmetry_multiplicity
 _atom_site_fract_x
 _atom_site_fract_y
 _atom_site_fract_z
 _atom_site_occupancy
  Zn  Zn1  1  0.660588  0.639363  0.693165  1.0
  Zn  Zn2  1  0.978775  0.339412  0.359831  1.0
  Zn  Zn3  1  0.360637  0.021225  0.026498  1.0
  Te  Te4  1  0.647043  0.670733  0.443502  1.0
  Te  Te5  1  0.329267  0.976309  0.776835  1.0
  Te  Te6  1  0.023691  0.352957  0.110169  1.0
