# generated using pymatgen
data_Mg2Al2Se5
_symmetry_space_group_name_H-M   'P 1'
_cell_length_a   3.91772513
_cell_length_b   3.91772512
_cell_length_c   16.50004493
_cell_angle_alpha   90.00000000
_cell_angle_beta   90.00000000
_cell_angle_gamma   119.99999999
_symmetry_Int_Tables_number   1
_chemical_formula_structural   Mg2Al2Se5
_chemical_formula_sum   'Mg2 Al2 Se5'
_cell_volume   219.32274973
_cell_formula_units_Z   1
loop_
 _symmetry_equiv_pos_site_id
 _symmetry_equiv_pos_as_xyz
  1  'x, y, z'
loop_
 _atom_site_type_symbol
 _atom_site_label
 _atom_site_symmetry_multiplicity
 _atom_site_fract_x
 _atom_site_fract_y
 _atom_site_fract_z
 _atom_site_occupancy
  Mg  Mg1  1  0.333333  0.666667  0.597498  1.0
  Mg  Mg2  1  0.666667  0.333333  0.402502  1.0
  Al  Al3  1  0.333333  0.666667  0.176385  1.0
  Al  Al4  1  0.666667  0.333333  0.823615  1.0
  Se  Se5  1  0.666667  0.333333  0.111469  1.0
  Se  Se6  1  0.333333  0.666667  0.888531  1.0
  Se  Se7  1  0.666667  0.333333  0.683523  1.0
  Se  Se8  1  0.333333  0.666667  0.316477  1.0
  Se  Se9  1  0.000000  0.000000  0.500000  1.0
