# generated using pymatgen
data_Li6MoN4
_symmetry_space_group_name_H-M   'P 1'
_cell_length_a   4.93570809
_cell_length_b   6.69689714
_cell_length_c   6.69689714
_cell_angle_alpha   90.00000000
_cell_angle_beta   90.00000000
_cell_angle_gamma   90.00000000
_symmetry_Int_Tables_number   1
_chemical_formula_structural   Li6MoN4
_chemical_formula_sum   'Li12 Mo2 N8'
_cell_volume   221.35876521
_cell_formula_units_Z   2
loop_
 _symmetry_equiv_pos_site_id
 _symmetry_equiv_pos_as_xyz
  1  'x, y, z'
loop_
 _atom_site_type_symbol
 _atom_site_label
 _atom_site_symmetry_multiplicity
 _atom_site_fract_x
 _atom_site_fract_y
 _atom_site_fract_z
 _atom_site_occupancy
  Li  Li1  1  0.250000  0.036240  0.536240  1.0
  Li  Li2  1  0.750000  0.963760  0.036240  1.0
  Li  Li3  1  0.750000  0.536240  0.463760  1.0
  Li  Li4  1  0.250000  0.463760  0.963760  1.0
  Li  Li5  1  0.750000  0.963760  0.463760  1.0
  Li  Li6  1  0.250000  0.036240  0.963760  1.0
  Li  Li7  1  0.250000  0.463760  0.536240  1.0
  Li  Li8  1  0.750000  0.536240  0.036240  1.0
  Li  Li9  1  0.669068  0.750000  0.750000  1.0
  Li  Li10  1  0.169068  0.750000  0.750000  1.0
  Li  Li11  1  0.830932  0.250000  0.250000  1.0
  Li  Li12  1  0.330933  0.250000  0.250000  1.0
  Mo  Mo13  1  0.250000  0.750000  0.250000  1.0
  Mo  Mo14  1  0.750000  0.250000  0.750000  1.0
  N  N15  1  0.948475  0.008396  0.750000  1.0
  N  N16  1  0.948475  0.491604  0.750000  1.0
  N  N17  1  0.448475  0.750000  0.491604  1.0
  N  N18  1  0.448475  0.750000  0.008396  1.0
  N  N19  1  0.551525  0.250000  0.508396  1.0
  N  N20  1  0.051525  0.991604  0.250000  1.0
  N  N21  1  0.051525  0.508396  0.250000  1.0
  N  N22  1  0.551525  0.250000  0.991604  1.0
