# generated using pymatgen
data_NaVN2
_symmetry_space_group_name_H-M   'P 1'
_cell_length_a   5.86914647
_cell_length_b   11.92286954
_cell_length_c   6.88384481
_cell_angle_alpha   90.00000000
_cell_angle_beta   90.00000000
_cell_angle_gamma   90.00000000
_symmetry_Int_Tables_number   1
_chemical_formula_structural   NaVN2
_chemical_formula_sum   'Na8 V8 N16'
_cell_volume   481.71127412
_cell_formula_units_Z   8
loop_
 _symmetry_equiv_pos_site_id
 _symmetry_equiv_pos_as_xyz
  1  'x, y, z'
loop_
 _atom_site_type_symbol
 _atom_site_label
 _atom_site_symmetry_multiplicity
 _atom_site_fract_x
 _atom_site_fract_y
 _atom_site_fract_z
 _atom_site_occupancy
  Na  Na1  1  0.000000  0.825122  0.428562  1.0
  Na  Na2  1  0.500000  0.674878  0.571438  1.0
  Na  Na3  1  0.000000  0.674878  0.928562  1.0
  Na  Na4  1  0.500000  0.825122  0.071438  1.0
  Na  Na5  1  0.500000  0.325122  0.428562  1.0
  Na  Na6  1  0.000000  0.174878  0.571438  1.0
  Na  Na7  1  0.500000  0.174878  0.928562  1.0
  Na  Na8  1  0.000000  0.325122  0.071438  1.0
  V  V9  1  0.000000  0.569919  0.356249  1.0
  V  V10  1  0.500000  0.930081  0.643751  1.0
  V  V11  1  0.000000  0.930081  0.856249  1.0
  V  V12  1  0.500000  0.569919  0.143751  1.0
  V  V13  1  0.500000  0.069919  0.356249  1.0
  V  V14  1  0.000000  0.430081  0.643751  1.0
  V  V15  1  0.500000  0.430081  0.856249  1.0
  V  V16  1  0.000000  0.069919  0.143751  1.0
  N  N17  1  0.000000  0.918204  0.116973  1.0
  N  N18  1  0.500000  0.581796  0.883027  1.0
  N  N19  1  0.000000  0.581796  0.616973  1.0
  N  N20  1  0.500000  0.918204  0.383027  1.0
  N  N21  1  0.750000  0.635527  0.250000  1.0
  N  N22  1  0.250000  0.864473  0.750000  1.0
  N  N23  1  0.750000  0.864473  0.750000  1.0
  N  N24  1  0.250000  0.635527  0.250000  1.0
  N  N25  1  0.500000  0.418204  0.116973  1.0
  N  N26  1  0.000000  0.081796  0.883027  1.0
  N  N27  1  0.500000  0.081796  0.616973  1.0
  N  N28  1  0.000000  0.418204  0.383027  1.0
  N  N29  1  0.250000  0.135527  0.250000  1.0
  N  N30  1  0.750000  0.364473  0.750000  1.0
  N  N31  1  0.250000  0.364473  0.750000  1.0
  N  N32  1  0.750000  0.135527  0.250000  1.0
