# generated using pymatgen
data_Ca3MoN3
_symmetry_space_group_name_H-M   'P 1'
_cell_length_a   7.50737741
_cell_length_b   7.50888434
_cell_length_c   5.09638223
_cell_angle_alpha   90.00000000
_cell_angle_beta   90.00000000
_cell_angle_gamma   119.99590086
_symmetry_Int_Tables_number   1
_chemical_formula_structural   Ca3MoN3
_chemical_formula_sum   'Ca6 Mo2 N6'
_cell_volume   248.81366357
_cell_formula_units_Z   2
loop_
 _symmetry_equiv_pos_site_id
 _symmetry_equiv_pos_as_xyz
  1  'x, y, z'
loop_
 _atom_site_type_symbol
 _atom_site_label
 _atom_site_symmetry_multiplicity
 _atom_site_fract_x
 _atom_site_fract_y
 _atom_site_fract_z
 _atom_site_occupancy
  Ca  Ca1  1  0.897317  0.649283  0.250000  1.0
  Ca  Ca2  1  0.752001  0.102690  0.250000  1.0
  Ca  Ca3  1  0.350645  0.247988  0.250000  1.0
  Ca  Ca4  1  0.102683  0.350717  0.750000  1.0
  Ca  Ca5  1  0.247999  0.897310  0.750000  1.0
  Ca  Ca6  1  0.649355  0.752012  0.750000  1.0
  Mo  Mo7  1  0.666664  0.333347  0.750000  1.0
  Mo  Mo8  1  0.333336  0.666653  0.250000  1.0
  N  N9  1  0.885657  0.605737  0.750000  1.0
  N  N10  1  0.720088  0.114387  0.750000  1.0
  N  N11  1  0.394257  0.279891  0.750000  1.0
  N  N12  1  0.114343  0.394263  0.250000  1.0
  N  N13  1  0.279912  0.885613  0.250000  1.0
  N  N14  1  0.605743  0.720109  0.250000  1.0
