# generated using pymatgen
data_HfMgN2
_symmetry_space_group_name_H-M   'P 1'
_cell_length_a   6.40664758
_cell_length_b   7.43214294
_cell_length_c   4.43598629
_cell_angle_alpha   90.00000000
_cell_angle_beta   90.00000000
_cell_angle_gamma   90.00000000
_symmetry_Int_Tables_number   1
_chemical_formula_structural   HfMgN2
_chemical_formula_sum   'Hf4 Mg4 N8'
_cell_volume   211.22002209
_cell_formula_units_Z   4
loop_
 _symmetry_equiv_pos_site_id
 _symmetry_equiv_pos_as_xyz
  1  'x, y, z'
loop_
 _atom_site_type_symbol
 _atom_site_label
 _atom_site_symmetry_multiplicity
 _atom_site_fract_x
 _atom_site_fract_y
 _atom_site_fract_z
 _atom_site_occupancy
  Hf  Hf1  1  0.587609  0.369634  0.942500  1.0
  Hf  Hf2  1  0.412391  0.630366  0.442501  1.0
  Hf  Hf3  1  0.912391  0.869634  0.442501  1.0
  Hf  Hf4  1  0.087609  0.130366  0.942500  1.0
  Mg  Mg5  1  0.578349  0.881347  0.942502  1.0
  Mg  Mg6  1  0.421651  0.118653  0.442502  1.0
  Mg  Mg7  1  0.921651  0.381347  0.442502  1.0
  Mg  Mg8  1  0.078349  0.618653  0.942502  1.0
  N  N9  1  0.579219  0.385113  0.442498  1.0
  N  N10  1  0.420781  0.614887  0.942498  1.0
  N  N11  1  0.920781  0.885113  0.942498  1.0
  N  N12  1  0.079219  0.114887  0.442498  1.0
  N  N13  1  0.584608  0.867778  0.442499  1.0
  N  N14  1  0.415392  0.132222  0.942499  1.0
  N  N15  1  0.915392  0.367778  0.942499  1.0
  N  N16  1  0.084608  0.632222  0.442499  1.0
