# generated using pymatgen
data_Ge
_symmetry_space_group_name_H-M   'P 1'
_cell_length_a   6.02665042
_cell_length_b   6.02665042
_cell_length_c   7.10586777
_cell_angle_alpha   90.00000000
_cell_angle_beta   90.00000000
_cell_angle_gamma   90.00000000
_symmetry_Int_Tables_number   1
_chemical_formula_structural   Ge
_chemical_formula_sum   Ge12
_cell_volume   258.08877895
_cell_formula_units_Z   12
loop_
 _symmetry_equiv_pos_site_id
 _symmetry_equiv_pos_as_xyz
  1  'x, y, z'
loop_
 _atom_site_type_symbol
 _atom_site_label
 _atom_site_symmetry_multiplicity
 _atom_site_fract_x
 _atom_site_fract_y
 _atom_site_fract_z
 _atom_site_occupancy
  Ge  Ge1  1  0.087648  0.087648  0.000000  1.0
  Ge  Ge2  1  0.412352  0.587648  0.750000  1.0
  Ge  Ge3  1  0.587648  0.412352  0.250000  1.0
  Ge  Ge4  1  0.912352  0.912352  0.500000  1.0
  Ge  Ge5  1  0.171399  0.370395  0.253228  1.0
  Ge  Ge6  1  0.129605  0.671399  0.003228  1.0
  Ge  Ge7  1  0.870395  0.328601  0.503228  1.0
  Ge  Ge8  1  0.671399  0.129605  0.996772  1.0
  Ge  Ge9  1  0.328601  0.870395  0.496772  1.0
  Ge  Ge10  1  0.828601  0.629605  0.753228  1.0
  Ge  Ge11  1  0.370395  0.171399  0.746772  1.0
  Ge  Ge12  1  0.629605  0.828601  0.246772  1.0
