# generated using pymatgen
data_NaNO2
_symmetry_space_group_name_H-M   'P 1'
_cell_length_a   3.63240737
_cell_length_b   4.32301498
_cell_length_c   4.32301498
_cell_angle_alpha   78.74165266
_cell_angle_beta   65.15756411
_cell_angle_gamma   65.15756407
_symmetry_Int_Tables_number   1
_chemical_formula_structural   NaNO2
_chemical_formula_sum   'Na1 N1 O2'
_cell_volume   55.88779125
_cell_formula_units_Z   1
loop_
 _symmetry_equiv_pos_site_id
 _symmetry_equiv_pos_as_xyz
  1  'x, y, z'
loop_
 _atom_site_type_symbol
 _atom_site_label
 _atom_site_symmetry_multiplicity
 _atom_site_fract_x
 _atom_site_fract_y
 _atom_site_fract_z
 _atom_site_occupancy
  Na  Na1  1  0.585699  0.414301  0.414301  1.0
  N  N2  1  0.123764  0.876236  0.876236  1.0
  O  O3  1  0.000818  0.804099  0.194264  1.0
  O  O4  1  0.000818  0.194264  0.804099  1.0
