# generated using pymatgen
data_CrAgSe2
_symmetry_space_group_name_H-M   'P 1'
_cell_length_a   7.37075771
_cell_length_b   7.37075771
_cell_length_c   7.37075771
_cell_angle_alpha   29.57084833
_cell_angle_beta   29.57084834
_cell_angle_gamma   29.57084832
_symmetry_Int_Tables_number   1
_chemical_formula_structural   CrAgSe2
_chemical_formula_sum   'Cr1 Ag1 Se2'
_cell_volume   86.33006695
_cell_formula_units_Z   1
loop_
 _symmetry_equiv_pos_site_id
 _symmetry_equiv_pos_as_xyz
  1  'x, y, z'
loop_
 _atom_site_type_symbol
 _atom_site_label
 _atom_site_symmetry_multiplicity
 _atom_site_fract_x
 _atom_site_fract_y
 _atom_site_fract_z
 _atom_site_occupancy
  Cr  Cr1  1  0.000158  0.000158  0.000158  1.0
  Ag  Ag2  1  0.150563  0.150563  0.150563  1.0
  Se  Se3  1  0.271791  0.271791  0.271791  1.0
  Se  Se4  1  0.733288  0.733288  0.733288  1.0
