# generated using pymatgen
data_FeHO2
_symmetry_space_group_name_H-M   'P 1'
_cell_length_a   3.06009053
_cell_length_b   4.48451209
_cell_length_c   5.04316316
_cell_angle_alpha   90.00000000
_cell_angle_beta   90.00000000
_cell_angle_gamma   90.00000000
_symmetry_Int_Tables_number   1
_chemical_formula_structural   FeHO2
_chemical_formula_sum   'Fe2 H2 O4'
_cell_volume   69.20739350
_cell_formula_units_Z   2
loop_
 _symmetry_equiv_pos_site_id
 _symmetry_equiv_pos_as_xyz
  1  'x, y, z'
loop_
 _atom_site_type_symbol
 _atom_site_label
 _atom_site_symmetry_multiplicity
 _atom_site_fract_x
 _atom_site_fract_y
 _atom_site_fract_z
 _atom_site_occupancy
  Fe  Fe1  1  0.000000  0.723025  0.010225  1.0
  Fe  Fe2  1  0.500000  0.276975  0.510225  1.0
  H  H3  1  0.000000  0.813865  0.491545  1.0
  H  H4  1  0.500000  0.186135  0.991545  1.0
  O  O5  1  0.000000  0.994404  0.368415  1.0
  O  O6  1  0.500000  0.005596  0.868415  1.0
  O  O7  1  0.000000  0.510153  0.661614  1.0
  O  O8  1  0.500000  0.489846  0.161614  1.0
