# generated using pymatgen
data_AlPO4
_symmetry_space_group_name_H-M   'P 1'
_cell_length_a   5.33597370
_cell_length_b   5.33597357
_cell_length_c   8.71484255
_cell_angle_alpha   89.99998653
_cell_angle_beta   90.00003701
_cell_angle_gamma   119.99994920
_symmetry_Int_Tables_number   1
_chemical_formula_structural   AlPO4
_chemical_formula_sum   'Al2 P2 O8'
_cell_volume   214.89076370
_cell_formula_units_Z   2
loop_
 _symmetry_equiv_pos_site_id
 _symmetry_equiv_pos_as_xyz
  1  'x, y, z'
loop_
 _atom_site_type_symbol
 _atom_site_label
 _atom_site_symmetry_multiplicity
 _atom_site_fract_x
 _atom_site_fract_y
 _atom_site_fract_z
 _atom_site_occupancy
  Al  Al1  1  0.666667  0.333333  0.562058  1.0
  Al  Al2  1  0.333333  0.666667  0.062059  1.0
  P  P3  1  0.333333  0.666667  0.436969  1.0
  P  P4  1  0.666667  0.333333  0.936969  1.0
  O  O5  1  0.510671  0.021341  0.995413  1.0
  O  O6  1  0.489330  0.510670  0.495414  1.0
  O  O7  1  0.489329  0.978660  0.495413  1.0
  O  O8  1  0.666667  0.333333  0.761532  1.0
  O  O9  1  0.333333  0.666667  0.261532  1.0
  O  O10  1  0.978659  0.489329  0.995414  1.0
  O  O11  1  0.510671  0.489330  0.995413  1.0
  O  O12  1  0.021341  0.510671  0.495414  1.0
