# generated using pymatgen
data_NaCNO
_symmetry_space_group_name_H-M   'P 1'
_cell_length_a   5.49080266
_cell_length_b   5.49080295
_cell_length_c   5.49080287
_cell_angle_alpha   39.07587993
_cell_angle_beta   39.07587605
_cell_angle_gamma   39.07587379
_symmetry_Int_Tables_number   1
_chemical_formula_structural   NaCNO
_chemical_formula_sum   'Na1 C1 N1 O1'
_cell_volume   59.16214075
_cell_formula_units_Z   1
loop_
 _symmetry_equiv_pos_site_id
 _symmetry_equiv_pos_as_xyz
  1  'x, y, z'
loop_
 _atom_site_type_symbol
 _atom_site_label
 _atom_site_symmetry_multiplicity
 _atom_site_fract_x
 _atom_site_fract_y
 _atom_site_fract_z
 _atom_site_occupancy
  Na  Na1  1  0.494760  0.494760  0.494760  1.0
  C  C2  1  0.999218  0.999218  0.999218  1.0
  N  N3  1  0.077798  0.077798  0.077798  1.0
  O  O4  1  0.918225  0.918225  0.918225  1.0
