# generated using pymatgen
data_ZrO2
_symmetry_space_group_name_H-M   'P 1'
_cell_length_a   5.90227882
_cell_length_b   5.07498875
_cell_length_c   5.44015662
_cell_angle_alpha   90.00000000
_cell_angle_beta   90.00000000
_cell_angle_gamma   90.00000000
_symmetry_Int_Tables_number   1
_chemical_formula_structural   ZrO2
_chemical_formula_sum   'Zr4 O8'
_cell_volume   162.95444384
_cell_formula_units_Z   4
loop_
 _symmetry_equiv_pos_site_id
 _symmetry_equiv_pos_as_xyz
  1  'x, y, z'
loop_
 _atom_site_type_symbol
 _atom_site_label
 _atom_site_symmetry_multiplicity
 _atom_site_fract_x
 _atom_site_fract_y
 _atom_site_fract_z
 _atom_site_occupancy
  Zr  Zr1  1  0.142820  0.417872  0.456910  1.0
  Zr  Zr2  1  0.357180  0.917872  0.956910  1.0
  Zr  Zr3  1  0.642820  0.082128  0.456910  1.0
  Zr  Zr4  1  0.857180  0.582128  0.956910  1.0
  O  O5  1  0.381807  0.221059  0.220512  1.0
  O  O6  1  0.117970  0.721158  0.193647  1.0
  O  O7  1  0.382030  0.221158  0.693647  1.0
  O  O8  1  0.118193  0.721059  0.720512  1.0
  O  O9  1  0.881807  0.278941  0.220512  1.0
  O  O10  1  0.617970  0.778842  0.193647  1.0
  O  O11  1  0.882030  0.278842  0.693647  1.0
  O  O12  1  0.618193  0.778941  0.720512  1.0
