# generated using pymatgen
data_Al2O3
_symmetry_space_group_name_H-M   'P 1'
_cell_length_a   7.73831201
_cell_length_b   3.19963969
_cell_length_c   10.70086042
_cell_angle_alpha   89.98294085
_cell_angle_beta   28.53378742
_cell_angle_gamma   101.90487039
_symmetry_Int_Tables_number   1
_chemical_formula_structural   Al2O3
_chemical_formula_sum   'Al4 O6'
_cell_volume   114.11767047
_cell_formula_units_Z   2
loop_
 _symmetry_equiv_pos_site_id
 _symmetry_equiv_pos_as_xyz
  1  'x, y, z'
loop_
 _atom_site_type_symbol
 _atom_site_label
 _atom_site_symmetry_multiplicity
 _atom_site_fract_x
 _atom_site_fract_y
 _atom_site_fract_z
 _atom_site_occupancy
  Al  Al1  1  0.374270  0.677008  0.219291  1.0
  Al  Al2  1  0.187244  0.585000  0.656095  1.0
  Al  Al3  1  0.625753  0.303145  0.780692  1.0
  Al  Al4  1  0.812692  0.396359  0.343940  1.0
  O  O5  1  0.133261  0.558201  0.523006  1.0
  O  O6  1  0.396894  0.688713  0.956205  1.0
  O  O7  1  0.603153  0.291436  0.043778  1.0
  O  O8  1  0.227567  0.105018  0.703610  1.0
  O  O9  1  0.772413  0.876447  0.296406  1.0
  O  O10  1  0.866754  0.424960  0.476978  1.0
