# generated using pymatgen
data_GeS2
_symmetry_space_group_name_H-M   'P 1'
_cell_length_a   5.78545229
_cell_length_b   5.78545228
_cell_length_c   6.11900804
_cell_angle_alpha   118.21258270
_cell_angle_beta   118.21258265
_cell_angle_gamma   90.00000001
_symmetry_Int_Tables_number   1
_chemical_formula_structural   GeS2
_chemical_formula_sum   'Ge2 S4'
_cell_volume   152.30995791
_cell_formula_units_Z   2
loop_
 _symmetry_equiv_pos_site_id
 _symmetry_equiv_pos_as_xyz
  1  'x, y, z'
loop_
 _atom_site_type_symbol
 _atom_site_label
 _atom_site_symmetry_multiplicity
 _atom_site_fract_x
 _atom_site_fract_y
 _atom_site_fract_z
 _atom_site_occupancy
  Ge  Ge1  1  0.250000  0.750000  0.500000  1.0
  Ge  Ge2  1  0.000000  0.000000  0.000000  1.0
  S  S3  1  0.901169  0.875000  0.250000  1.0
  S  S4  1  0.625000  0.098831  0.750000  1.0
  S  S5  1  0.348831  0.375000  0.250000  1.0
  S  S6  1  0.125000  0.651169  0.750000  1.0
