# generated using pymatgen
data_Li4CuF7
_symmetry_space_group_name_H-M   'P 1'
_cell_length_a   5.90244149
_cell_length_b   5.90244149
_cell_length_c   5.90244086
_cell_angle_alpha   119.99999790
_cell_angle_beta   119.99999790
_cell_angle_gamma   90.00000000
_symmetry_Int_Tables_number   1
_chemical_formula_structural   Li4CuF7
_chemical_formula_sum   'Li4 Cu1 F7'
_cell_volume   145.40523928
_cell_formula_units_Z   1
loop_
 _symmetry_equiv_pos_site_id
 _symmetry_equiv_pos_as_xyz
  1  'x, y, z'
loop_
 _atom_site_type_symbol
 _atom_site_label
 _atom_site_symmetry_multiplicity
 _atom_site_fract_x
 _atom_site_fract_y
 _atom_site_fract_z
 _atom_site_occupancy
  Li  Li1  1  0.118585  0.372862  0.745724  1.0
  Li  Li2  1  0.627138  0.372862  0.745724  1.0
  Li  Li3  1  0.627138  0.372862  0.254276  1.0
  Li  Li4  1  0.627138  0.881415  0.254276  1.0
  Cu  Cu5  1  0.000000  0.000000  0.000000  1.0
  F  F6  1  0.233262  0.233262  0.466524  1.0
  F  F7  1  0.233262  0.233262  0.000000  1.0
  F  F8  1  0.233262  0.766738  0.000000  1.0
  F  F9  1  0.750000  0.250000  0.500000  1.0
  F  F10  1  0.766738  0.766738  0.533476  1.0
  F  F11  1  0.766738  0.233262  0.000000  1.0
  F  F12  1  0.766738  0.766738  0.000000  1.0
