# generated using pymatgen
data_Ca3CdO4
_symmetry_space_group_name_H-M   'P 1'
_cell_length_a   3.42272814
_cell_length_b   5.89485298
_cell_length_c   5.89485298
_cell_angle_alpha   70.33784233
_cell_angle_beta   90.00000000
_cell_angle_gamma   90.00000000
_symmetry_Int_Tables_number   1
_chemical_formula_structural   Ca3CdO4
_chemical_formula_sum   'Ca3 Cd1 O4'
_cell_volume   112.00249451
_cell_formula_units_Z   1
loop_
 _symmetry_equiv_pos_site_id
 _symmetry_equiv_pos_as_xyz
  1  'x, y, z'
loop_
 _atom_site_type_symbol
 _atom_site_label
 _atom_site_symmetry_multiplicity
 _atom_site_fract_x
 _atom_site_fract_y
 _atom_site_fract_z
 _atom_site_occupancy
  Ca  Ca1  1  0.000000  0.500000  0.500000  1.0
  Ca  Ca2  1  0.500000  0.000000  0.500000  1.0
  Ca  Ca3  1  0.500000  0.500000  0.000000  1.0
  Cd  Cd4  1  0.000000  0.000000  0.000000  1.0
  O  O5  1  0.000000  0.746781  0.746781  1.0
  O  O6  1  0.500000  0.254411  0.745589  1.0
  O  O7  1  0.500000  0.745589  0.254411  1.0
  O  O8  1  0.000000  0.253219  0.253219  1.0
