# generated using pymatgen
data_FeOF
_symmetry_space_group_name_H-M   'P 1'
_cell_length_a   5.22197049
_cell_length_b   5.59112868
_cell_length_c   5.22197017
_cell_angle_alpha   117.83890618
_cell_angle_beta   60.00000268
_cell_angle_gamma   117.83890541
_symmetry_Int_Tables_number   1
_chemical_formula_structural   FeOF
_chemical_formula_sum   'Fe3 O3 F3'
_cell_volume   111.19689634
_cell_formula_units_Z   3
loop_
 _symmetry_equiv_pos_site_id
 _symmetry_equiv_pos_as_xyz
  1  'x, y, z'
loop_
 _atom_site_type_symbol
 _atom_site_label
 _atom_site_symmetry_multiplicity
 _atom_site_fract_x
 _atom_site_fract_y
 _atom_site_fract_z
 _atom_site_occupancy
  Fe  Fe1  1  0.139208  0.417625  0.139208  1.0
  Fe  Fe2  1  0.357925  0.073774  0.357925  1.0
  Fe  Fe3  1  0.673269  0.019806  0.673269  1.0
  O  O4  1  0.064137  0.225930  0.410073  1.0
  O  O5  1  0.410073  0.225930  0.751720  1.0
  O  O6  1  0.751720  0.225930  0.064137  1.0
  F  F7  1  0.307226  0.752468  0.939102  1.0
  F  F8  1  0.506140  0.752468  0.307226  1.0
  F  F9  1  0.939102  0.752468  0.506140  1.0
