# generated using pymatgen
data_Al2ZnSe4
_symmetry_space_group_name_H-M   'P 1'
_cell_length_a   5.63194678
_cell_length_b   5.63194678
_cell_length_c   6.78762458
_cell_angle_alpha   114.51105195
_cell_angle_beta   114.51105198
_cell_angle_gamma   89.99999992
_symmetry_Int_Tables_number   1
_chemical_formula_structural   Al2ZnSe4
_chemical_formula_sum   'Al2 Zn1 Se4'
_cell_volume   174.34518191
_cell_formula_units_Z   1
loop_
 _symmetry_equiv_pos_site_id
 _symmetry_equiv_pos_as_xyz
  1  'x, y, z'
loop_
 _atom_site_type_symbol
 _atom_site_label
 _atom_site_symmetry_multiplicity
 _atom_site_fract_x
 _atom_site_fract_y
 _atom_site_fract_z
 _atom_site_occupancy
  Al  Al1  1  0.250000  0.750000  0.500000  1.0
  Al  Al2  1  0.500000  0.500000  0.000000  1.0
  Zn  Zn3  1  0.000000  0.000000  0.000000  1.0
  Se  Se4  1  0.394825  0.380678  0.264100  1.0
  Se  Se5  1  0.116579  0.605175  0.735900  1.0
  Se  Se6  1  0.619322  0.130726  0.735900  1.0
  Se  Se7  1  0.869274  0.883421  0.264100  1.0
