# generated using pymatgen
data_Fe(SiP)4
_symmetry_space_group_name_H-M   'P 1'
_cell_length_a   4.89253910
_cell_length_b   5.56020729
_cell_length_c   6.08902323
_cell_angle_alpha   85.39405085
_cell_angle_beta   68.38685346
_cell_angle_gamma   70.46286467
_symmetry_Int_Tables_number   1
_chemical_formula_structural   Fe(SiP)4
_chemical_formula_sum   'Fe1 Si4 P4'
_cell_volume   144.95664924
_cell_formula_units_Z   1
loop_
 _symmetry_equiv_pos_site_id
 _symmetry_equiv_pos_as_xyz
  1  'x, y, z'
loop_
 _atom_site_type_symbol
 _atom_site_label
 _atom_site_symmetry_multiplicity
 _atom_site_fract_x
 _atom_site_fract_y
 _atom_site_fract_z
 _atom_site_occupancy
  Fe  Fe1  1  0.999912  0.001041  0.000251  1.0
  Si  Si2  1  0.680654  0.777805  0.216499  1.0
  Si  Si3  1  0.239178  0.338401  0.430782  1.0
  Si  Si4  1  0.344066  0.599613  0.886258  1.0
  Si  Si5  1  0.846918  0.972221  0.697573  1.0
  P  P6  1  0.156029  0.010099  0.308400  1.0
  P  P7  1  0.635980  0.399196  0.116574  1.0
  P  P8  1  0.762328  0.641674  0.564829  1.0
  P  P9  1  0.328136  0.218251  0.769633  1.0
