# generated using pymatgen
data_NaRuN
_symmetry_space_group_name_H-M   'P 1'
_cell_length_a   3.22966870
_cell_length_b   3.22966870
_cell_length_c   10.01584482
_cell_angle_alpha   90.00000000
_cell_angle_beta   90.00000000
_cell_angle_gamma   119.99997918
_symmetry_Int_Tables_number   1
_chemical_formula_structural   NaRuN
_chemical_formula_sum   'Na2 Ru2 N2'
_cell_volume   90.47618069
_cell_formula_units_Z   2
loop_
 _symmetry_equiv_pos_site_id
 _symmetry_equiv_pos_as_xyz
  1  'x, y, z'
loop_
 _atom_site_type_symbol
 _atom_site_label
 _atom_site_symmetry_multiplicity
 _atom_site_fract_x
 _atom_site_fract_y
 _atom_site_fract_z
 _atom_site_occupancy
  Na  Na1  1  0.666667  0.333333  0.763459  1.0
  Na  Na2  1  0.333333  0.666667  0.263459  1.0
  Ru  Ru3  1  0.000000  0.000000  0.516980  1.0
  Ru  Ru4  1  0.000000  0.000000  0.016980  1.0
  N  N5  1  0.333333  0.666667  0.564203  1.0
  N  N6  1  0.666667  0.333333  0.064203  1.0
