# generated using pymatgen
data_Li3InN2
_symmetry_space_group_name_H-M   'P 1'
_cell_length_a   8.84697662
_cell_length_b   10.21560861
_cell_length_c   10.21560877
_cell_angle_alpha   89.99999705
_cell_angle_beta   125.26438698
_cell_angle_gamma   54.73561240
_symmetry_Int_Tables_number   1
_chemical_formula_structural   Li3InN2
_chemical_formula_sum   'Li24 In8 N16'
_cell_volume   533.04365589
_cell_formula_units_Z   8
loop_
 _symmetry_equiv_pos_site_id
 _symmetry_equiv_pos_as_xyz
  1  'x, y, z'
loop_
 _atom_site_type_symbol
 _atom_site_label
 _atom_site_symmetry_multiplicity
 _atom_site_fract_x
 _atom_site_fract_y
 _atom_site_fract_z
 _atom_site_occupancy
  Li  Li1  1  0.229594  0.034151  0.003838  1.0
  Li  Li2  1  0.770406  0.763745  0.496162  1.0
  Li  Li3  1  0.770406  0.465849  0.774243  1.0
  Li  Li4  1  0.229594  0.736255  0.725757  1.0
  Li  Li5  1  0.221918  0.774243  0.259908  1.0
  Li  Li6  1  0.778081  0.725757  0.037988  1.0
  Li  Li7  1  0.221918  0.003838  0.462012  1.0
  Li  Li8  1  0.778081  0.496162  0.240092  1.0
  Li  Li9  1  0.702104  0.037988  0.736255  1.0
  Li  Li10  1  0.702104  0.259908  0.465849  1.0
  Li  Li11  1  0.297896  0.240092  0.763745  1.0
  Li  Li12  1  0.297896  0.462012  0.034151  1.0
  Li  Li13  1  0.770406  0.965849  0.996162  1.0
  Li  Li14  1  0.229594  0.236255  0.503838  1.0
  Li  Li15  1  0.229594  0.534151  0.225757  1.0
  Li  Li16  1  0.770406  0.263745  0.274243  1.0
  Li  Li17  1  0.778081  0.225757  0.740092  1.0
  Li  Li18  1  0.221918  0.274243  0.962012  1.0
  Li  Li19  1  0.778081  0.996162  0.537988  1.0
  Li  Li20  1  0.221918  0.503838  0.759908  1.0
  Li  Li21  1  0.297896  0.962012  0.263745  1.0
  Li  Li22  1  0.297896  0.740092  0.534151  1.0
  Li  Li23  1  0.702104  0.759908  0.236255  1.0
  Li  Li24  1  0.702104  0.537988  0.965849  1.0
  In  In25  1  0.247948  0.000000  0.747948  1.0
  In  In26  1  0.752052  0.747948  0.752052  1.0
  In  In27  1  0.752052  0.500000  0.500000  1.0
  In  In28  1  0.247948  0.752052  0.000000  1.0
  In  In29  1  0.752052  0.000000  0.252052  1.0
  In  In30  1  0.247948  0.252052  0.247948  1.0
  In  In31  1  0.247948  0.500000  0.500000  1.0
  In  In32  1  0.752052  0.247948  0.000000  1.0
  N  N33  1  0.000000  0.000000  0.500000  1.0
  N  N34  1  0.000000  0.500000  0.000000  1.0
  N  N35  1  0.000000  0.500000  0.500000  1.0
  N  N36  1  0.000000  0.000000  0.000000  1.0
  N  N37  1  0.500000  0.999145  0.750000  1.0
  N  N38  1  0.500000  0.500855  0.250000  1.0
  N  N39  1  0.000000  0.250000  0.749145  1.0
  N  N40  1  0.000000  0.750000  0.750855  1.0
  N  N41  1  0.501711  0.749145  0.500855  1.0
  N  N42  1  0.498289  0.750855  0.999145  1.0
  N  N43  1  0.500000  0.000855  0.250000  1.0
  N  N44  1  0.500000  0.499145  0.750000  1.0
  N  N45  1  0.000000  0.750000  0.250855  1.0
  N  N46  1  0.000000  0.250000  0.249145  1.0
  N  N47  1  0.498289  0.250855  0.499145  1.0
  N  N48  1  0.501711  0.249145  0.000855  1.0
