# generated using pymatgen
data_MgSiN2
_symmetry_space_group_name_H-M   'P 1'
_cell_length_a   4.62819877
_cell_length_b   4.62819877
_cell_length_c   5.19835111
_cell_angle_alpha   116.43359322
_cell_angle_beta   116.43359330
_cell_angle_gamma   90.00000009
_symmetry_Int_Tables_number   1
_chemical_formula_structural   MgSiN2
_chemical_formula_sum   'Mg2 Si2 N4'
_cell_volume   86.51421933
_cell_formula_units_Z   2
loop_
 _symmetry_equiv_pos_site_id
 _symmetry_equiv_pos_as_xyz
  1  'x, y, z'
loop_
 _atom_site_type_symbol
 _atom_site_label
 _atom_site_symmetry_multiplicity
 _atom_site_fract_x
 _atom_site_fract_y
 _atom_site_fract_z
 _atom_site_occupancy
  Mg  Mg1  1  0.250000  0.750000  0.500000  1.0
  Mg  Mg2  1  0.000000  0.000000  0.000000  1.0
  Si  Si3  1  0.500000  0.500000  0.000000  1.0
  Si  Si4  1  0.750000  0.250000  0.500000  1.0
  N  N5  1  0.811908  0.875000  0.250000  1.0
  N  N6  1  0.625000  0.188092  0.750000  1.0
  N  N7  1  0.438092  0.375000  0.250000  1.0
  N  N8  1  0.125000  0.561908  0.750000  1.0
