# generated using pymatgen
data_Mn(GaSe2)2
_symmetry_space_group_name_H-M   'P 1'
_cell_length_a   5.71620018
_cell_length_b   5.71620018
_cell_length_c   6.81400587
_cell_angle_alpha   114.79954742
_cell_angle_beta   114.79954736
_cell_angle_gamma   89.99999997
_symmetry_Int_Tables_number   1
_chemical_formula_structural   Mn(GaSe2)2
_chemical_formula_sum   'Mn1 Ga2 Se4'
_cell_volume   179.24583435
_cell_formula_units_Z   1
loop_
 _symmetry_equiv_pos_site_id
 _symmetry_equiv_pos_as_xyz
  1  'x, y, z'
loop_
 _atom_site_type_symbol
 _atom_site_label
 _atom_site_symmetry_multiplicity
 _atom_site_fract_x
 _atom_site_fract_y
 _atom_site_fract_z
 _atom_site_occupancy
  Mn  Mn1  1  0.000000  0.000000  0.000000  1.0
  Ga  Ga2  1  0.500000  0.500000  0.000000  1.0
  Ga  Ga3  1  0.250000  0.750000  0.500000  1.0
  Se  Se4  1  0.400393  0.381001  0.267889  1.0
  Se  Se5  1  0.113111  0.599607  0.732111  1.0
  Se  Se6  1  0.618999  0.132504  0.732111  1.0
  Se  Se7  1  0.867496  0.886889  0.267889  1.0
