# generated using pymatgen
data_LiFe5O8
_symmetry_space_group_name_H-M   'P 1'
_cell_length_a   5.82895385
_cell_length_b   5.83891073
_cell_length_c   5.83891051
_cell_angle_alpha   60.00000131
_cell_angle_beta   59.94347919
_cell_angle_gamma   59.94347628
_symmetry_Int_Tables_number   1
_chemical_formula_structural   LiFe5O8
_chemical_formula_sum   'Li1 Fe5 O8'
_cell_volume   140.40019683
_cell_formula_units_Z   1
loop_
 _symmetry_equiv_pos_site_id
 _symmetry_equiv_pos_as_xyz
  1  'x, y, z'
loop_
 _atom_site_type_symbol
 _atom_site_label
 _atom_site_symmetry_multiplicity
 _atom_site_fract_x
 _atom_site_fract_y
 _atom_site_fract_z
 _atom_site_occupancy
  Li  Li1  1  0.125000  0.625000  0.625000  1.0
  Fe  Fe2  1  0.985423  0.004859  0.004859  1.0
  Fe  Fe3  1  0.264577  0.245141  0.245141  1.0
  Fe  Fe4  1  0.625000  0.125000  0.625000  1.0
  Fe  Fe5  1  0.625000  0.625000  0.125000  1.0
  Fe  Fe6  1  0.625000  0.625000  0.625000  1.0
  O  O7  1  0.401835  0.376244  0.376244  1.0
  O  O8  1  0.401835  0.845677  0.376244  1.0
  O  O9  1  0.401835  0.376244  0.845677  1.0
  O  O10  1  0.855783  0.381406  0.381406  1.0
  O  O11  1  0.394217  0.868594  0.868594  1.0
  O  O12  1  0.848165  0.404323  0.873756  1.0
  O  O13  1  0.848165  0.873756  0.404323  1.0
  O  O14  1  0.848165  0.873756  0.873756  1.0
