# generated using pymatgen
data_CsTaN2
_symmetry_space_group_name_H-M   'P 1'
_cell_length_a   6.29363021
_cell_length_b   6.28531468
_cell_length_c   6.29363055
_cell_angle_alpha   60.04370155
_cell_angle_beta   59.91260043
_cell_angle_gamma   60.04370414
_symmetry_Int_Tables_number   1
_chemical_formula_structural   CsTaN2
_chemical_formula_sum   'Cs2 Ta2 N4'
_cell_volume   176.04066510
_cell_formula_units_Z   2
loop_
 _symmetry_equiv_pos_site_id
 _symmetry_equiv_pos_as_xyz
  1  'x, y, z'
loop_
 _atom_site_type_symbol
 _atom_site_label
 _atom_site_symmetry_multiplicity
 _atom_site_fract_x
 _atom_site_fract_y
 _atom_site_fract_z
 _atom_site_occupancy
  Cs  Cs1  1  0.500000  0.500000  0.500000  1.0
  Cs  Cs2  1  0.750000  0.750000  0.750000  1.0
  Ta  Ta3  1  0.000000  0.000000  0.000000  1.0
  Ta  Ta4  1  0.250000  0.250000  0.250000  1.0
  N  N5  1  0.168586  0.125000  0.081414  1.0
  N  N6  1  0.625000  0.168586  0.125000  1.0
  N  N7  1  0.125000  0.081414  0.625000  1.0
  N  N8  1  0.081414  0.625000  0.168586  1.0
