# generated using pymatgen
data_BN
_symmetry_space_group_name_H-M   'P 1'
_cell_length_a   3.28764166
_cell_length_b   4.34856997
_cell_length_c   4.99383755
_cell_angle_alpha   84.81911801
_cell_angle_beta   70.78160261
_cell_angle_gamma   74.07807132
_symmetry_Int_Tables_number   1
_chemical_formula_structural   BN
_chemical_formula_sum   'B4 N4'
_cell_volume   64.82951334
_cell_formula_units_Z   4
loop_
 _symmetry_equiv_pos_site_id
 _symmetry_equiv_pos_as_xyz
  1  'x, y, z'
loop_
 _atom_site_type_symbol
 _atom_site_label
 _atom_site_symmetry_multiplicity
 _atom_site_fract_x
 _atom_site_fract_y
 _atom_site_fract_z
 _atom_site_occupancy
  B  B1  1  0.566427  0.999796  0.867973  1.0
  B  B2  1  0.434400  0.499796  0.132027  1.0
  B  B3  1  0.564202  0.508179  0.612797  1.0
  B  B4  1  0.176999  0.008179  0.387203  1.0
  N  N5  1  0.778339  0.159217  0.607402  1.0
  N  N6  1  0.385740  0.659217  0.392598  1.0
  N  N7  1  0.511787  0.678907  0.868118  1.0
  N  N8  1  0.379906  0.178907  0.131882  1.0
