# generated using pymatgen
data_KNO2
_symmetry_space_group_name_H-M   'P 1'
_cell_length_a   4.67279147
_cell_length_b   4.27491273
_cell_length_c   4.67279221
_cell_angle_alpha   66.33486323
_cell_angle_beta   75.69475494
_cell_angle_gamma   66.33486030
_symmetry_Int_Tables_number   1
_chemical_formula_structural   KNO2
_chemical_formula_sum   'K1 N1 O2'
_cell_volume   77.89149953
_cell_formula_units_Z   1
loop_
 _symmetry_equiv_pos_site_id
 _symmetry_equiv_pos_as_xyz
  1  'x, y, z'
loop_
 _atom_site_type_symbol
 _atom_site_label
 _atom_site_symmetry_multiplicity
 _atom_site_fract_x
 _atom_site_fract_y
 _atom_site_fract_z
 _atom_site_occupancy
  K  K1  1  0.016563  0.977684  0.016563  1.0
  N  N2  1  0.490023  0.539153  0.490023  1.0
  O  O3  1  0.405970  0.407582  0.781444  1.0
  O  O4  1  0.781444  0.407582  0.405970  1.0
