# generated using pymatgen
data_ZnSiAs2
_symmetry_space_group_name_H-M   'P 1'
_cell_length_a   5.67932051
_cell_length_b   5.67932050
_cell_length_c   6.83433684
_cell_angle_alpha   114.55074600
_cell_angle_beta   114.55074593
_cell_angle_gamma   89.99999999
_symmetry_Int_Tables_number   1
_chemical_formula_structural   ZnSiAs2
_chemical_formula_sum   'Zn2 Si2 As4'
_cell_volume   178.36815310
_cell_formula_units_Z   2
loop_
 _symmetry_equiv_pos_site_id
 _symmetry_equiv_pos_as_xyz
  1  'x, y, z'
loop_
 _atom_site_type_symbol
 _atom_site_label
 _atom_site_symmetry_multiplicity
 _atom_site_fract_x
 _atom_site_fract_y
 _atom_site_fract_z
 _atom_site_occupancy
  Zn  Zn1  1  0.000000  0.000000  0.000000  1.0
  Zn  Zn2  1  0.250000  0.750000  0.500000  1.0
  Si  Si3  1  0.500000  0.500000  0.000000  1.0
  Si  Si4  1  0.750000  0.250000  0.500000  1.0
  As  As5  1  0.861920  0.875000  0.250000  1.0
  As  As6  1  0.625000  0.138080  0.750000  1.0
  As  As7  1  0.125000  0.611920  0.750000  1.0
  As  As8  1  0.388080  0.375000  0.250000  1.0
