# generated using pymatgen
data_Mg(CN)2
_symmetry_space_group_name_H-M   'P 1'
_cell_length_a   6.23666537
_cell_length_b   6.23644844
_cell_length_c   6.23644844
_cell_angle_alpha   90.00000000
_cell_angle_beta   90.00000000
_cell_angle_gamma   90.00000000
_symmetry_Int_Tables_number   1
_chemical_formula_structural   Mg(CN)2
_chemical_formula_sum   'Mg2 C4 N4'
_cell_volume   242.56442953
_cell_formula_units_Z   2
loop_
 _symmetry_equiv_pos_site_id
 _symmetry_equiv_pos_as_xyz
  1  'x, y, z'
loop_
 _atom_site_type_symbol
 _atom_site_label
 _atom_site_symmetry_multiplicity
 _atom_site_fract_x
 _atom_site_fract_y
 _atom_site_fract_z
 _atom_site_occupancy
  Mg  Mg1  1  0.241378  0.250000  0.250000  1.0
  Mg  Mg2  1  0.741378  0.750000  0.750000  1.0
  C  C3  1  0.447809  0.050512  0.050512  1.0
  C  C4  1  0.447809  0.449488  0.449488  1.0
  C  C5  1  0.947809  0.550512  0.949488  1.0
  C  C6  1  0.947809  0.949488  0.550512  1.0
  N  N7  1  0.056502  0.057458  0.442542  1.0
  N  N8  1  0.056502  0.442542  0.057458  1.0
  N  N9  1  0.556502  0.557458  0.557458  1.0
  N  N10  1  0.556502  0.942542  0.942542  1.0
