# generated using pymatgen
data_Ga2CoS4
_symmetry_space_group_name_H-M   'P 1'
_cell_length_a   5.29198729
_cell_length_b   5.29198728
_cell_length_c   6.45268046
_cell_angle_alpha   114.20867693
_cell_angle_beta   114.20867699
_cell_angle_gamma   89.99999995
_symmetry_Int_Tables_number   1
_chemical_formula_structural   Ga2CoS4
_chemical_formula_sum   'Ga2 Co1 S4'
_cell_volume   147.21889366
_cell_formula_units_Z   1
loop_
 _symmetry_equiv_pos_site_id
 _symmetry_equiv_pos_as_xyz
  1  'x, y, z'
loop_
 _atom_site_type_symbol
 _atom_site_label
 _atom_site_symmetry_multiplicity
 _atom_site_fract_x
 _atom_site_fract_y
 _atom_site_fract_z
 _atom_site_occupancy
  Ga  Ga1  1  0.500000  0.500000  0.000000  1.0
  Ga  Ga2  1  0.250000  0.750000  0.500000  1.0
  Co  Co3  1  0.000000  0.000000  0.000000  1.0
  S  S4  1  0.874869  0.886340  0.253531  1.0
  S  S5  1  0.632808  0.125131  0.746469  1.0
  S  S6  1  0.113660  0.621337  0.746469  1.0
  S  S7  1  0.378663  0.367192  0.253531  1.0
