# generated using pymatgen
data_Na4PtO4
_symmetry_space_group_name_H-M   'P 1'
_cell_length_a   3.30166135
_cell_length_b   5.73047757
_cell_length_c   7.16088064
_cell_angle_alpha   75.54864975
_cell_angle_beta   103.32854726
_cell_angle_gamma   106.74298790
_symmetry_Int_Tables_number   1
_chemical_formula_structural   Na4PtO4
_chemical_formula_sum   'Na4 Pt1 O4'
_cell_volume   123.78369350
_cell_formula_units_Z   1
loop_
 _symmetry_equiv_pos_site_id
 _symmetry_equiv_pos_as_xyz
  1  'x, y, z'
loop_
 _atom_site_type_symbol
 _atom_site_label
 _atom_site_symmetry_multiplicity
 _atom_site_fract_x
 _atom_site_fract_y
 _atom_site_fract_z
 _atom_site_occupancy
  Na  Na1  1  0.993101  0.011927  0.974276  1.0
  Na  Na2  1  0.831125  0.468414  0.193836  1.0
  Na  Na3  1  0.406899  0.188073  0.625724  1.0
  Na  Na4  1  0.568875  0.731586  0.406164  1.0
  Pt  Pt5  1  0.200000  0.600000  0.800000  1.0
  O  O6  1  0.396917  0.725231  0.068602  1.0
  O  O7  1  0.003083  0.474769  0.531398  1.0
  O  O8  1  0.768237  0.832203  0.704271  1.0
  O  O9  1  0.631763  0.367797  0.895729  1.0
