# generated using pymatgen
data_MnF3
_symmetry_space_group_name_H-M   'P 1'
_cell_length_a   5.40336152
_cell_length_b   3.87136080
_cell_length_c   5.59539200
_cell_angle_alpha   90.00484518
_cell_angle_beta   90.00196451
_cell_angle_gamma   90.00092158
_symmetry_Int_Tables_number   1
_chemical_formula_structural   MnF3
_chemical_formula_sum   'Mn2 F6'
_cell_volume   117.04643476
_cell_formula_units_Z   2
loop_
 _symmetry_equiv_pos_site_id
 _symmetry_equiv_pos_as_xyz
  1  'x, y, z'
loop_
 _atom_site_type_symbol
 _atom_site_label
 _atom_site_symmetry_multiplicity
 _atom_site_fract_x
 _atom_site_fract_y
 _atom_site_fract_z
 _atom_site_occupancy
  Mn  Mn1  1  0.000266  0.007290  0.996722  1.0
  Mn  Mn2  1  0.500450  0.007486  0.496743  1.0
  F  F3  1  0.000150  0.507301  0.996174  1.0
  F  F4  1  0.219488  0.007525  0.686658  1.0
  F  F5  1  0.281224  0.007253  0.186685  1.0
  F  F6  1  0.500622  0.507458  0.496318  1.0
  F  F7  1  0.718851  0.007174  0.807207  1.0
  F  F8  1  0.781774  0.007414  0.307138  1.0
