# generated using pymatgen
data_Cu3Se2
_symmetry_space_group_name_H-M   'P 1'
_cell_length_a   4.34932022
_cell_length_b   6.39491904
_cell_length_c   6.39491904
_cell_angle_alpha   90.00000000
_cell_angle_beta   90.00000000
_cell_angle_gamma   90.00000000
_symmetry_Int_Tables_number   1
_chemical_formula_structural   Cu3Se2
_chemical_formula_sum   'Cu6 Se4'
_cell_volume   177.86540485
_cell_formula_units_Z   2
loop_
 _symmetry_equiv_pos_site_id
 _symmetry_equiv_pos_as_xyz
  1  'x, y, z'
loop_
 _atom_site_type_symbol
 _atom_site_label
 _atom_site_symmetry_multiplicity
 _atom_site_fract_x
 _atom_site_fract_y
 _atom_site_fract_z
 _atom_site_occupancy
  Cu  Cu1  1  0.000000  0.000000  0.000000  1.0
  Cu  Cu2  1  0.000000  0.500000  0.500000  1.0
  Cu  Cu3  1  0.754951  0.145809  0.354191  1.0
  Cu  Cu4  1  0.245049  0.354191  0.854191  1.0
  Cu  Cu5  1  0.245049  0.645809  0.145809  1.0
  Cu  Cu6  1  0.754951  0.854191  0.645809  1.0
  Se  Se7  1  0.261686  0.270922  0.229078  1.0
  Se  Se8  1  0.738314  0.229078  0.729078  1.0
  Se  Se9  1  0.738314  0.770922  0.270922  1.0
  Se  Se10  1  0.261686  0.729078  0.770922  1.0
