# generated using pymatgen
data_LiH2N
_symmetry_space_group_name_H-M   'P 1'
_cell_length_a   5.08548057
_cell_length_b   5.08548057
_cell_length_c   6.37532069
_cell_angle_alpha   113.50574935
_cell_angle_beta   113.50574935
_cell_angle_gamma   90.00000000
_symmetry_Int_Tables_number   1
_chemical_formula_structural   LiH2N
_chemical_formula_sum   'Li4 H8 N4'
_cell_volume   136.14790308
_cell_formula_units_Z   4
loop_
 _symmetry_equiv_pos_site_id
 _symmetry_equiv_pos_as_xyz
  1  'x, y, z'
loop_
 _atom_site_type_symbol
 _atom_site_label
 _atom_site_symmetry_multiplicity
 _atom_site_fract_x
 _atom_site_fract_y
 _atom_site_fract_z
 _atom_site_occupancy
  Li  Li1  1  0.000000  0.000000  0.000000  1.0
  Li  Li2  1  0.250000  0.750000  0.500000  1.0
  Li  Li3  1  0.492110  0.992110  0.984220  1.0
  Li  Li4  1  0.007890  0.507890  0.015780  1.0
  H  H5  1  0.694077  0.036883  0.620964  1.0
  H  H6  1  0.926887  0.584081  0.620964  1.0
  H  H7  1  0.963117  0.073113  0.379036  1.0
  H  H8  1  0.415919  0.305923  0.379036  1.0
  H  H9  1  0.541947  0.284009  0.753288  1.0
  H  H10  1  0.211341  0.469279  0.753288  1.0
  H  H11  1  0.715991  0.788659  0.246712  1.0
  H  H12  1  0.530721  0.458053  0.246712  1.0
  N  N13  1  0.639706  0.113161  0.771594  1.0
  N  N14  1  0.131888  0.658433  0.771594  1.0
  N  N15  1  0.886839  0.868112  0.228406  1.0
  N  N16  1  0.341567  0.360294  0.228406  1.0
