# generated using pymatgen
data_FeBiO3
_symmetry_space_group_name_H-M   'P 1'
_cell_length_a   5.64169095
_cell_length_b   5.64169095
_cell_length_c   5.72381358
_cell_angle_alpha   60.47348959
_cell_angle_beta   60.47348959
_cell_angle_gamma   59.99999357
_symmetry_Int_Tables_number   1
_chemical_formula_structural   FeBiO3
_chemical_formula_sum   'Fe2 Bi2 O6'
_cell_volume   129.73597096
_cell_formula_units_Z   2
loop_
 _symmetry_equiv_pos_site_id
 _symmetry_equiv_pos_as_xyz
  1  'x, y, z'
loop_
 _atom_site_type_symbol
 _atom_site_label
 _atom_site_symmetry_multiplicity
 _atom_site_fract_x
 _atom_site_fract_y
 _atom_site_fract_z
 _atom_site_occupancy
  Fe  Fe1  1  0.279642  0.279642  0.161074  1.0
  Fe  Fe2  1  0.779642  0.779642  0.661074  1.0
  Bi  Bi3  1  0.500221  0.500221  0.499338  1.0
  Bi  Bi4  1  0.000221  0.000221  0.999338  1.0
  O  O5  1  0.963510  0.114005  0.356863  1.0
  O  O6  1  0.114005  0.565622  0.356863  1.0
  O  O7  1  0.565622  0.963510  0.356863  1.0
  O  O8  1  0.463510  0.065622  0.856863  1.0
  O  O9  1  0.065622  0.614005  0.856863  1.0
  O  O10  1  0.614005  0.463510  0.856863  1.0
