# generated using pymatgen
data_Na5NiSO2
_symmetry_space_group_name_H-M   'P 1'
_cell_length_a   4.58006711
_cell_length_b   4.58013016
_cell_length_c   8.17952723
_cell_angle_alpha   89.99937410
_cell_angle_beta   89.99955177
_cell_angle_gamma   90.61545646
_symmetry_Int_Tables_number   1
_chemical_formula_structural   Na5NiSO2
_chemical_formula_sum   'Na5 Ni1 S1 O2'
_cell_volume   171.57452618
_cell_formula_units_Z   1
loop_
 _symmetry_equiv_pos_site_id
 _symmetry_equiv_pos_as_xyz
  1  'x, y, z'
loop_
 _atom_site_type_symbol
 _atom_site_label
 _atom_site_symmetry_multiplicity
 _atom_site_fract_x
 _atom_site_fract_y
 _atom_site_fract_z
 _atom_site_occupancy
  Na  Na1  1  0.000017  0.500015  0.259102  1.0
  Na  Na2  1  0.500012  0.000017  0.259479  1.0
  Na  Na3  1  0.999996  0.499997  0.740902  1.0
  Na  Na4  1  0.499996  0.000002  0.740530  1.0
  Na  Na5  1  0.000006  0.000010  0.500000  1.0
  Ni  Ni6  1  0.999965  0.999945  0.000002  1.0
  S  S7  1  0.500005  0.500008  0.500003  1.0
  O  O8  1  0.999992  0.999992  0.780343  1.0
  O  O9  1  0.000012  0.000012  0.219640  1.0
