# generated using pymatgen
data_TaAs
_symmetry_space_group_name_H-M   'P 1'
_cell_length_a   3.46961322
_cell_length_b   3.46961322
_cell_length_c   6.35971848
_cell_angle_alpha   105.82978464
_cell_angle_beta   105.82978463
_cell_angle_gamma   90.00000001
_symmetry_Int_Tables_number   1
_chemical_formula_structural   TaAs
_chemical_formula_sum   'Ta2 As2'
_cell_volume   70.63357003
_cell_formula_units_Z   2
loop_
 _symmetry_equiv_pos_site_id
 _symmetry_equiv_pos_as_xyz
  1  'x, y, z'
loop_
 _atom_site_type_symbol
 _atom_site_label
 _atom_site_symmetry_multiplicity
 _atom_site_fract_x
 _atom_site_fract_y
 _atom_site_fract_z
 _atom_site_occupancy
  Ta  Ta1  1  0.999936  0.999936  0.999873  1.0
  Ta  Ta2  1  0.749936  0.249936  0.499873  1.0
  As  As3  1  0.417764  0.417764  0.835527  1.0
  As  As4  1  0.167764  0.667764  0.335527  1.0
