# generated using pymatgen
data_Ce2MgCu2
_symmetry_space_group_name_H-M   'P 1'
_cell_length_a   3.75176146
_cell_length_b   7.72835223
_cell_length_c   7.72835223
_cell_angle_alpha   90.00000000
_cell_angle_beta   90.00000000
_cell_angle_gamma   90.00000000
_symmetry_Int_Tables_number   1
_chemical_formula_structural   Ce2MgCu2
_chemical_formula_sum   'Ce4 Mg2 Cu4'
_cell_volume   224.08306319
_cell_formula_units_Z   2
loop_
 _symmetry_equiv_pos_site_id
 _symmetry_equiv_pos_as_xyz
  1  'x, y, z'
loop_
 _atom_site_type_symbol
 _atom_site_label
 _atom_site_symmetry_multiplicity
 _atom_site_fract_x
 _atom_site_fract_y
 _atom_site_fract_z
 _atom_site_occupancy
  Ce  Ce1  1  0.500000  0.826237  0.326237  1.0
  Ce  Ce2  1  0.500000  0.673763  0.826237  1.0
  Ce  Ce3  1  0.500000  0.326237  0.173763  1.0
  Ce  Ce4  1  0.500000  0.173763  0.673763  1.0
  Mg  Mg5  1  0.000000  0.500000  0.500000  1.0
  Mg  Mg6  1  0.000000  0.000000  0.000000  1.0
  Cu  Cu7  1  0.000000  0.621347  0.121347  1.0
  Cu  Cu8  1  0.000000  0.878653  0.621347  1.0
  Cu  Cu9  1  0.000000  0.378653  0.878653  1.0
  Cu  Cu10  1  0.000000  0.121347  0.378653  1.0
