# generated using pymatgen
data_Ac3Th
_symmetry_space_group_name_H-M   'P 1'
_cell_length_a   7.77949497
_cell_length_b   7.77949684
_cell_length_c   6.32232661
_cell_angle_alpha   90.00000000
_cell_angle_beta   90.00000000
_cell_angle_gamma   120.00000476
_symmetry_Int_Tables_number   1
_chemical_formula_structural   Ac3Th
_chemical_formula_sum   'Ac6 Th2'
_cell_volume   331.36791226
_cell_formula_units_Z   2
loop_
 _symmetry_equiv_pos_site_id
 _symmetry_equiv_pos_as_xyz
  1  'x, y, z'
loop_
 _atom_site_type_symbol
 _atom_site_label
 _atom_site_symmetry_multiplicity
 _atom_site_fract_x
 _atom_site_fract_y
 _atom_site_fract_z
 _atom_site_occupancy
  Ac  Ac1  1  0.170662  0.341323  0.249999  1.0
  Ac  Ac2  1  0.658676  0.829338  0.249999  1.0
  Ac  Ac3  1  0.170661  0.829338  0.249999  1.0
  Ac  Ac4  1  0.829339  0.658678  0.749999  1.0
  Ac  Ac5  1  0.341323  0.170662  0.749999  1.0
  Ac  Ac6  1  0.829339  0.170662  0.749999  1.0
  Th  Th7  1  0.333333  0.666666  0.749999  1.0
  Th  Th8  1  0.666667  0.333332  0.249999  1.0
