# generated using pymatgen
data_CaMoN3
_symmetry_space_group_name_H-M   'P 1'
_cell_length_a   3.70989129
_cell_length_b   6.42467871
_cell_length_c   6.51477998
_cell_angle_alpha   104.30290503
_cell_angle_beta   106.54263950
_cell_angle_gamma   90.00000087
_symmetry_Int_Tables_number   1
_chemical_formula_structural   CaMoN3
_chemical_formula_sum   'Ca2 Mo2 N6'
_cell_volume   143.82349978
_cell_formula_units_Z   2
loop_
 _symmetry_equiv_pos_site_id
 _symmetry_equiv_pos_as_xyz
  1  'x, y, z'
loop_
 _atom_site_type_symbol
 _atom_site_label
 _atom_site_symmetry_multiplicity
 _atom_site_fract_x
 _atom_site_fract_y
 _atom_site_fract_z
 _atom_site_occupancy
  Ca  Ca1  1  0.623930  0.331350  0.247860  1.0
  Ca  Ca2  1  0.376070  0.668650  0.752140  1.0
  Mo  Mo3  1  0.848130  0.142850  0.696260  1.0
  Mo  Mo4  1  0.151870  0.857150  0.303740  1.0
  N  N5  1  0.321090  0.011470  0.642180  1.0
  N  N6  1  0.156180  0.581330  0.312360  1.0
  N  N7  1  0.999920  0.894380  0.999840  1.0
  N  N8  1  0.000080  0.105620  0.000160  1.0
  N  N9  1  0.678910  0.988530  0.357820  1.0
  N  N10  1  0.843820  0.418670  0.687640  1.0
