# generated using pymatgen
data_NiO2
_symmetry_space_group_name_H-M   'P 1'
_cell_length_a   2.79896635
_cell_length_b   2.79859635
_cell_length_c   4.61827255
_cell_angle_alpha   89.98098610
_cell_angle_beta   90.02023698
_cell_angle_gamma   119.97870998
_symmetry_Int_Tables_number   1
_chemical_formula_structural   NiO2
_chemical_formula_sum   'Ni1 O2'
_cell_volume   31.33583184
_cell_formula_units_Z   1
loop_
 _symmetry_equiv_pos_site_id
 _symmetry_equiv_pos_as_xyz
  1  'x, y, z'
loop_
 _atom_site_type_symbol
 _atom_site_label
 _atom_site_symmetry_multiplicity
 _atom_site_fract_x
 _atom_site_fract_y
 _atom_site_fract_z
 _atom_site_occupancy
  Ni  Ni1  1  0.999960  0.999819  0.999826  1.0
  O  O2  1  0.333301  0.666764  0.205865  1.0
  O  O3  1  0.666640  0.333417  0.794309  1.0
