# generated using pymatgen
data_Li2PrO3
_symmetry_space_group_name_H-M   'P 1'
_cell_length_a   3.69354178
_cell_length_b   4.60141584
_cell_length_c   5.46175503
_cell_angle_alpha   114.91287814
_cell_angle_beta   90.00000000
_cell_angle_gamma   90.00000000
_symmetry_Int_Tables_number   1
_chemical_formula_structural   Li2PrO3
_chemical_formula_sum   'Li2 Pr1 O3'
_cell_volume   84.18791495
_cell_formula_units_Z   1
loop_
 _symmetry_equiv_pos_site_id
 _symmetry_equiv_pos_as_xyz
  1  'x, y, z'
loop_
 _atom_site_type_symbol
 _atom_site_label
 _atom_site_symmetry_multiplicity
 _atom_site_fract_x
 _atom_site_fract_y
 _atom_site_fract_z
 _atom_site_occupancy
  Li  Li1  1  0.500000  0.655615  0.311230  1.0
  Li  Li2  1  0.500000  0.344385  0.688770  1.0
  Pr  Pr3  1  0.000000  0.000000  0.000000  1.0
  O  O4  1  0.000000  0.500000  0.000000  1.0
  O  O5  1  0.500000  0.849953  0.699907  1.0
  O  O6  1  0.500000  0.150047  0.300093  1.0
