# generated using pymatgen
data_TaS2
_symmetry_space_group_name_H-M   'P 1'
_cell_length_a   7.04439752
_cell_length_b   7.04439767
_cell_length_c   7.04439743
_cell_angle_alpha   27.71477202
_cell_angle_beta   27.71476999
_cell_angle_gamma   27.71476671
_symmetry_Int_Tables_number   1
_chemical_formula_structural   TaS2
_chemical_formula_sum   'Ta1 S2'
_cell_volume   66.75396928
_cell_formula_units_Z   1
loop_
 _symmetry_equiv_pos_site_id
 _symmetry_equiv_pos_as_xyz
  1  'x, y, z'
loop_
 _atom_site_type_symbol
 _atom_site_label
 _atom_site_symmetry_multiplicity
 _atom_site_fract_x
 _atom_site_fract_y
 _atom_site_fract_z
 _atom_site_occupancy
  Ta  Ta1  1  0.000000  0.000000  0.000000  1.0
  S  S2  1  0.257576  0.257576  0.257576  1.0
  S  S3  1  0.742424  0.742424  0.742424  1.0
