# generated using pymatgen
data_Er(FeGe)2
_symmetry_space_group_name_H-M   'P 1'
_cell_length_a   3.95364219
_cell_length_b   3.95364219
_cell_length_c   5.81906964
_cell_angle_alpha   109.85946782
_cell_angle_beta   109.85946785
_cell_angle_gamma   90.00000009
_symmetry_Int_Tables_number   1
_chemical_formula_structural   Er(FeGe)2
_chemical_formula_sum   'Er1 Fe2 Ge2'
_cell_volume   79.77460171
_cell_formula_units_Z   1
loop_
 _symmetry_equiv_pos_site_id
 _symmetry_equiv_pos_as_xyz
  1  'x, y, z'
loop_
 _atom_site_type_symbol
 _atom_site_label
 _atom_site_symmetry_multiplicity
 _atom_site_fract_x
 _atom_site_fract_y
 _atom_site_fract_z
 _atom_site_occupancy
  Er  Er1  1  0.000000  0.000000  0.000000  1.0
  Fe  Fe2  1  0.250000  0.750000  0.500000  1.0
  Fe  Fe3  1  0.750000  0.250000  0.500000  1.0
  Ge  Ge4  1  0.625912  0.625912  0.251825  1.0
  Ge  Ge5  1  0.374088  0.374088  0.748175  1.0
