# generated using pymatgen
data_NdTe2ClO5
_symmetry_space_group_name_H-M   'P 1'
_cell_length_a   3.93260570
_cell_length_b   3.93260589
_cell_length_c   8.70371557
_cell_angle_alpha   90.00000000
_cell_angle_beta   90.00000000
_cell_angle_gamma   90.00000000
_symmetry_Int_Tables_number   1
_chemical_formula_structural   NdTe2ClO5
_chemical_formula_sum   'Nd1 Te2 Cl1 O5'
_cell_volume   134.60634128
_cell_formula_units_Z   1
loop_
 _symmetry_equiv_pos_site_id
 _symmetry_equiv_pos_as_xyz
  1  'x, y, z'
loop_
 _atom_site_type_symbol
 _atom_site_label
 _atom_site_symmetry_multiplicity
 _atom_site_fract_x
 _atom_site_fract_y
 _atom_site_fract_z
 _atom_site_occupancy
  Nd  Nd1  1  0.000000  0.000000  0.999999  1.0
  Te  Te2  1  0.500000  0.500000  0.263100  1.0
  Te  Te3  1  0.500000  0.500000  0.736901  1.0
  Cl  Cl4  1  0.000000  0.000000  0.500001  1.0
  O  O5  1  0.000000  0.500000  0.186368  1.0
  O  O6  1  0.000000  0.500000  0.813633  1.0
  O  O7  1  0.500000  0.000000  0.813632  1.0
  O  O8  1  0.500000  0.500000  0.999998  1.0
  O  O9  1  0.500000  0.000000  0.186367  1.0
