# generated using pymatgen
data_SiC
_symmetry_space_group_name_H-M   'P 1'
_cell_length_a   3.09567500
_cell_length_b   3.09567458
_cell_length_c   20.24825100
_cell_angle_alpha   90.00000000
_cell_angle_beta   90.00000000
_cell_angle_gamma   119.99999376
_symmetry_Int_Tables_number   1
_chemical_formula_structural   SiC
_chemical_formula_sum   'Si8 C8'
_cell_volume   168.04625393
_cell_formula_units_Z   8
loop_
 _symmetry_equiv_pos_site_id
 _symmetry_equiv_pos_as_xyz
  1  'x, y, z'
loop_
 _atom_site_type_symbol
 _atom_site_label
 _atom_site_symmetry_multiplicity
 _atom_site_fract_x
 _atom_site_fract_y
 _atom_site_fract_z
 _atom_site_occupancy
  Si  Si1  1  0.333333  0.666667  0.875128  1.0
  Si  Si2  1  0.333333  0.666667  0.625050  1.0
  Si  Si3  1  0.000000  0.000000  0.000097  1.0
  Si  Si4  1  0.666667  0.333333  0.750104  1.0
  Si  Si5  1  0.666667  0.333333  0.375128  1.0
  Si  Si6  1  0.333333  0.666667  0.250104  1.0
  Si  Si7  1  0.000000  0.000000  0.500097  1.0
  Si  Si8  1  0.666667  0.333333  0.125050  1.0
  C  C9  1  0.333333  0.666667  0.344081  1.0
  C  C10  1  0.666667  0.333333  0.218734  1.0
  C  C11  1  0.666667  0.333333  0.844081  1.0
  C  C12  1  0.000000  0.000000  0.593920  1.0
  C  C13  1  0.333333  0.666667  0.968888  1.0
  C  C14  1  0.000000  0.000000  0.093920  1.0
  C  C15  1  0.333333  0.666667  0.718734  1.0
  C  C16  1  0.666667  0.333333  0.468888  1.0
