# generated using pymatgen
data_NbCoO4
_symmetry_space_group_name_H-M   'P 1'
_cell_length_a   3.84059316
_cell_length_b   6.42264357
_cell_length_c   6.55160321
_cell_angle_alpha   107.03984855
_cell_angle_beta   89.99912468
_cell_angle_gamma   107.39647861
_symmetry_Int_Tables_number   1
_chemical_formula_structural   NbCoO4
_chemical_formula_sum   'Nb2 Co2 O8'
_cell_volume   146.76372385
_cell_formula_units_Z   2
loop_
 _symmetry_equiv_pos_site_id
 _symmetry_equiv_pos_as_xyz
  1  'x, y, z'
loop_
 _atom_site_type_symbol
 _atom_site_label
 _atom_site_symmetry_multiplicity
 _atom_site_fract_x
 _atom_site_fract_y
 _atom_site_fract_z
 _atom_site_occupancy
  Nb  Nb1  1  0.104758  0.209539  0.238020  1.0
  Nb  Nb2  1  0.895241  0.790459  0.761978  1.0
  Co  Co3  1  0.795907  0.591815  0.171904  1.0
  Co  Co4  1  0.204093  0.408185  0.828096  1.0
  O  O5  1  0.942899  0.885925  0.136218  1.0
  O  O6  1  0.057101  0.114074  0.863783  1.0
  O  O7  1  0.737203  0.474399  0.862738  1.0
  O  O8  1  0.141582  0.283243  0.527615  1.0
  O  O9  1  0.644037  0.288120  0.201626  1.0
  O  O10  1  0.858420  0.716760  0.472385  1.0
  O  O11  1  0.262797  0.525601  0.137262  1.0
  O  O12  1  0.355963  0.711880  0.798376  1.0
