# generated using pymatgen
data_LiCoF4
_symmetry_space_group_name_H-M   'P 1'
_cell_length_a   4.74461807
_cell_length_b   5.53173427
_cell_length_c   5.62228377
_cell_angle_alpha   114.37511370
_cell_angle_beta   90.00000000
_cell_angle_gamma   90.00000000
_symmetry_Int_Tables_number   1
_chemical_formula_structural   LiCoF4
_chemical_formula_sum   'Li2 Co2 F8'
_cell_volume   134.40901353
_cell_formula_units_Z   2
loop_
 _symmetry_equiv_pos_site_id
 _symmetry_equiv_pos_as_xyz
  1  'x, y, z'
loop_
 _atom_site_type_symbol
 _atom_site_label
 _atom_site_symmetry_multiplicity
 _atom_site_fract_x
 _atom_site_fract_y
 _atom_site_fract_z
 _atom_site_occupancy
  Li  Li1  1  0.500000  0.500000  0.000000  1.0
  Li  Li2  1  0.000000  0.500000  0.500000  1.0
  Co  Co3  1  0.000000  0.000000  0.000000  1.0
  Co  Co4  1  0.500000  0.000000  0.500000  1.0
  F  F5  1  0.204795  0.146530  0.342501  1.0
  F  F6  1  0.182514  0.678865  0.872785  1.0
  F  F7  1  0.795205  0.853470  0.657499  1.0
  F  F8  1  0.704795  0.853470  0.157499  1.0
  F  F9  1  0.295205  0.146530  0.842501  1.0
  F  F10  1  0.817486  0.321135  0.127215  1.0
  F  F11  1  0.317486  0.678865  0.372785  1.0
  F  F12  1  0.682514  0.321135  0.627215  1.0
