# generated using pymatgen
data_Li3(CuO2)2
_symmetry_space_group_name_H-M   'P 1'
_cell_length_a   2.79445170
_cell_length_b   5.19758530
_cell_length_c   6.78266181
_cell_angle_alpha   73.42098575
_cell_angle_beta   78.11198479
_cell_angle_gamma   74.40581754
_symmetry_Int_Tables_number   1
_chemical_formula_structural   Li3(CuO2)2
_chemical_formula_sum   'Li3 Cu2 O4'
_cell_volume   90.04662444
_cell_formula_units_Z   1
loop_
 _symmetry_equiv_pos_site_id
 _symmetry_equiv_pos_as_xyz
  1  'x, y, z'
loop_
 _atom_site_type_symbol
 _atom_site_label
 _atom_site_symmetry_multiplicity
 _atom_site_fract_x
 _atom_site_fract_y
 _atom_site_fract_z
 _atom_site_occupancy
  Li  Li1  1  0.638469  0.595124  0.127938  1.0
  Li  Li2  1  0.999954  0.500032  0.500061  1.0
  Li  Li3  1  0.361490  0.404822  0.872198  1.0
  Cu  Cu4  1  0.158551  0.952211  0.730687  1.0
  Cu  Cu5  1  0.841387  0.048171  0.269056  1.0
  O  O6  1  0.256156  0.308491  0.179197  1.0
  O  O7  1  0.743955  0.691298  0.820792  1.0
  O  O8  1  0.564951  0.214943  0.655155  1.0
  O  O9  1  0.435087  0.784909  0.344918  1.0
