# generated using pymatgen
data_Ca2Cu(BrO)2
_symmetry_space_group_name_H-M   'P 1'
_cell_length_a   3.88489714
_cell_length_b   3.88489675
_cell_length_c   9.26575395
_cell_angle_alpha   102.10110401
_cell_angle_beta   102.10110258
_cell_angle_gamma   90.00000251
_symmetry_Int_Tables_number   1
_chemical_formula_structural   Ca2Cu(BrO)2
_chemical_formula_sum   'Ca2 Cu1 Br2 O2'
_cell_volume   133.55557649
_cell_formula_units_Z   1
loop_
 _symmetry_equiv_pos_site_id
 _symmetry_equiv_pos_as_xyz
  1  'x, y, z'
loop_
 _atom_site_type_symbol
 _atom_site_label
 _atom_site_symmetry_multiplicity
 _atom_site_fract_x
 _atom_site_fract_y
 _atom_site_fract_z
 _atom_site_occupancy
  Ca  Ca1  1  0.411123  0.411123  0.822247  1.0
  Ca  Ca2  1  0.588877  0.588877  0.177754  1.0
  Cu  Cu3  1  0.999998  0.999998  0.999997  1.0
  Br  Br4  1  0.829664  0.829664  0.659328  1.0
  Br  Br5  1  0.170337  0.170337  0.340673  1.0
  O  O6  1  0.500000  0.000000  0.000001  1.0
  O  O7  1  0.000000  0.500000  0.000001  1.0
