# generated using pymatgen
data_TmAlSi
_symmetry_space_group_name_H-M   'P 1'
_cell_length_a   3.98991419
_cell_length_b   5.45480234
_cell_length_c   5.64328790
_cell_angle_alpha   90.00000000
_cell_angle_beta   90.00000000
_cell_angle_gamma   111.45220167
_symmetry_Int_Tables_number   1
_chemical_formula_structural   TmAlSi
_chemical_formula_sum   'Tm2 Al2 Si2'
_cell_volume   114.31289511
_cell_formula_units_Z   2
loop_
 _symmetry_equiv_pos_site_id
 _symmetry_equiv_pos_as_xyz
  1  'x, y, z'
loop_
 _atom_site_type_symbol
 _atom_site_label
 _atom_site_symmetry_multiplicity
 _atom_site_fract_x
 _atom_site_fract_y
 _atom_site_fract_z
 _atom_site_occupancy
  Tm  Tm1  1  0.305728  0.611456  0.750000  1.0
  Tm  Tm2  1  0.694272  0.388544  0.250000  1.0
  Al  Al3  1  0.000000  0.000000  0.000000  1.0
  Al  Al4  1  0.000000  0.000000  0.500000  1.0
  Si  Si5  1  0.601686  0.203372  0.750000  1.0
  Si  Si6  1  0.398314  0.796628  0.250000  1.0
