# generated using pymatgen
data_UCdO4
_symmetry_space_group_name_H-M   'P 1'
_cell_length_a   3.52678413
_cell_length_b   5.02404516
_cell_length_c   5.02404499
_cell_angle_alpha   92.02895259
_cell_angle_beta   90.00000000
_cell_angle_gamma   90.00000000
_symmetry_Int_Tables_number   1
_chemical_formula_structural   UCdO4
_chemical_formula_sum   'U1 Cd1 O4'
_cell_volume   88.96385058
_cell_formula_units_Z   1
loop_
 _symmetry_equiv_pos_site_id
 _symmetry_equiv_pos_as_xyz
  1  'x, y, z'
loop_
 _atom_site_type_symbol
 _atom_site_label
 _atom_site_symmetry_multiplicity
 _atom_site_fract_x
 _atom_site_fract_y
 _atom_site_fract_z
 _atom_site_occupancy
  U  U1  1  0.000000  0.000000  0.000000  1.0
  Cd  Cd2  1  0.500000  0.500000  0.500000  1.0
  O  O3  1  0.000000  0.717083  0.717083  1.0
  O  O4  1  0.500000  0.824116  0.175884  1.0
  O  O5  1  0.000000  0.282917  0.282917  1.0
  O  O6  1  0.500000  0.175884  0.824116  1.0
