# generated using pymatgen
data_Sr2CuO3
_symmetry_space_group_name_H-M   'P 1'
_cell_length_a   3.54867290
_cell_length_b   3.97322223
_cell_length_c   6.88268141
_cell_angle_alpha   106.77649983
_cell_angle_beta   104.93939968
_cell_angle_gamma   90.00000001
_symmetry_Int_Tables_number   1
_chemical_formula_structural   Sr2CuO3
_chemical_formula_sum   'Sr2 Cu1 O3'
_cell_volume   89.48169503
_cell_formula_units_Z   1
loop_
 _symmetry_equiv_pos_site_id
 _symmetry_equiv_pos_as_xyz
  1  'x, y, z'
loop_
 _atom_site_type_symbol
 _atom_site_label
 _atom_site_symmetry_multiplicity
 _atom_site_fract_x
 _atom_site_fract_y
 _atom_site_fract_z
 _atom_site_occupancy
  Sr  Sr1  1  0.646782  0.146782  0.293564  1.0
  Sr  Sr2  1  0.353218  0.853218  0.706436  1.0
  Cu  Cu3  1  0.000000  0.500000  0.000000  1.0
  O  O4  1  0.000000  0.000000  0.000000  1.0
  O  O5  1  0.845292  0.345292  0.690584  1.0
  O  O6  1  0.154708  0.654708  0.309416  1.0
