# generated using pymatgen
data_Rb2NiF4
_symmetry_space_group_name_H-M   'P 1'
_cell_length_a   4.16058700
_cell_length_b   4.16058735
_cell_length_c   7.53206128
_cell_angle_alpha   106.03305488
_cell_angle_beta   106.03305622
_cell_angle_gamma   89.99999142
_symmetry_Int_Tables_number   1
_chemical_formula_structural   Rb2NiF4
_chemical_formula_sum   'Rb2 Ni1 F4'
_cell_volume   120.02634411
_cell_formula_units_Z   1
loop_
 _symmetry_equiv_pos_site_id
 _symmetry_equiv_pos_as_xyz
  1  'x, y, z'
loop_
 _atom_site_type_symbol
 _atom_site_label
 _atom_site_symmetry_multiplicity
 _atom_site_fract_x
 _atom_site_fract_y
 _atom_site_fract_z
 _atom_site_occupancy
  Rb  Rb1  1  0.645952  0.645952  0.291903  1.0
  Rb  Rb2  1  0.354048  0.354048  0.708097  1.0
  Ni  Ni3  1  0.000000  0.000000  0.000000  1.0
  F  F4  1  0.500000  0.000000  0.000000  1.0
  F  F5  1  0.000000  0.500000  0.000000  1.0
  F  F6  1  0.853902  0.853902  0.707806  1.0
  F  F7  1  0.146098  0.146098  0.292194  1.0
