# generated using pymatgen
data_Be22Re
_symmetry_space_group_name_H-M   'P 1'
_cell_length_a   8.13033489
_cell_length_b   8.13033421
_cell_length_c   8.13033404
_cell_angle_alpha   59.99999664
_cell_angle_beta   59.99999938
_cell_angle_gamma   59.99999920
_symmetry_Int_Tables_number   1
_chemical_formula_structural   Be22Re
_chemical_formula_sum   'Be44 Re2'
_cell_volume   380.02328577
_cell_formula_units_Z   2
loop_
 _symmetry_equiv_pos_site_id
 _symmetry_equiv_pos_as_xyz
  1  'x, y, z'
loop_
 _atom_site_type_symbol
 _atom_site_label
 _atom_site_symmetry_multiplicity
 _atom_site_fract_x
 _atom_site_fract_y
 _atom_site_fract_z
 _atom_site_occupancy
  Be  Be1  1  0.510406  0.510406  0.239594  1.0
  Be  Be2  1  0.943598  0.205236  0.675583  1.0
  Be  Be3  1  0.675583  0.205236  0.675583  1.0
  Be  Be4  1  0.794764  0.324417  0.324417  1.0
  Be  Be5  1  0.000000  0.500000  0.500000  1.0
  Be  Be6  1  0.760406  0.489594  0.760406  1.0
  Be  Be7  1  0.489594  0.760406  0.760406  1.0
  Be  Be8  1  0.056402  0.794764  0.324417  1.0
  Be  Be9  1  0.489594  0.760406  0.489594  1.0
  Be  Be10  1  0.000000  0.000000  0.000000  1.0
  Be  Be11  1  0.675583  0.943598  0.205236  1.0
  Be  Be12  1  0.943598  0.675583  0.675583  1.0
  Be  Be13  1  0.510406  0.239594  0.239594  1.0
  Be  Be14  1  0.056402  0.324417  0.794764  1.0
  Be  Be15  1  0.239594  0.239594  0.510406  1.0
  Be  Be16  1  0.205236  0.675583  0.675583  1.0
  Be  Be17  1  0.675583  0.205236  0.943598  1.0
  Be  Be18  1  0.760406  0.489594  0.489594  1.0
  Be  Be19  1  0.056402  0.324417  0.324417  1.0
  Be  Be20  1  0.324417  0.056402  0.794764  1.0
  Be  Be21  1  0.324417  0.794764  0.324417  1.0
  Be  Be22  1  0.500000  0.000000  0.500000  1.0
  Be  Be23  1  0.943598  0.675583  0.205236  1.0
  Be  Be24  1  0.675583  0.675583  0.943598  1.0
  Be  Be25  1  0.324417  0.056402  0.324417  1.0
  Be  Be26  1  0.500000  0.000000  0.000000  1.0
  Be  Be27  1  0.324417  0.324417  0.056402  1.0
  Be  Be28  1  0.489594  0.489594  0.760406  1.0
  Be  Be29  1  0.205236  0.943598  0.675583  1.0
  Be  Be30  1  0.239594  0.510406  0.510406  1.0
  Be  Be31  1  0.000000  0.500000  0.000000  1.0
  Be  Be32  1  0.760406  0.760406  0.489594  1.0
  Be  Be33  1  0.794764  0.056402  0.324417  1.0
  Be  Be34  1  0.324417  0.324417  0.794764  1.0
  Be  Be35  1  0.675583  0.675583  0.205236  1.0
  Be  Be36  1  0.205236  0.675583  0.943598  1.0
  Be  Be37  1  0.324417  0.794764  0.056402  1.0
  Be  Be38  1  0.500000  0.500000  0.000000  1.0
  Be  Be39  1  0.794764  0.324417  0.056402  1.0
  Be  Be40  1  0.510406  0.239594  0.510406  1.0
  Be  Be41  1  0.675583  0.943598  0.675583  1.0
  Be  Be42  1  0.500000  0.500000  0.500000  1.0
  Be  Be43  1  0.239594  0.510406  0.239594  1.0
  Be  Be44  1  0.000000  0.000000  0.500000  1.0
  Re  Re45  1  0.875000  0.875000  0.875000  1.0
  Re  Re46  1  0.125000  0.125000  0.125000  1.0
