# generated using pymatgen
data_Cd(CO2)2
_symmetry_space_group_name_H-M   'P 1'
_cell_length_a   5.41188441
_cell_length_b   6.00057159
_cell_length_c   5.90610282
_cell_angle_alpha   112.92674766
_cell_angle_beta   90.00000000
_cell_angle_gamma   90.00000000
_symmetry_Int_Tables_number   1
_chemical_formula_structural   Cd(CO2)2
_chemical_formula_sum   'Cd2 C4 O8'
_cell_volume   176.64586985
_cell_formula_units_Z   2
loop_
 _symmetry_equiv_pos_site_id
 _symmetry_equiv_pos_as_xyz
  1  'x, y, z'
loop_
 _atom_site_type_symbol
 _atom_site_label
 _atom_site_symmetry_multiplicity
 _atom_site_fract_x
 _atom_site_fract_y
 _atom_site_fract_z
 _atom_site_occupancy
  Cd  Cd1  1  0.000000  0.000000  0.000000  1.0
  Cd  Cd2  1  0.500000  0.500000  0.500000  1.0
  C  C3  1  0.882351  0.082166  0.537912  1.0
  C  C4  1  0.117649  0.917834  0.462088  1.0
  C  C5  1  0.617649  0.582166  0.037912  1.0
  C  C6  1  0.382351  0.417834  0.962088  1.0
  O  O7  1  0.278663  0.386213  0.760659  1.0
  O  O8  1  0.692759  0.675165  0.889076  1.0
  O  O9  1  0.307241  0.324835  0.110924  1.0
  O  O10  1  0.807241  0.175165  0.389076  1.0
  O  O11  1  0.721337  0.613787  0.239341  1.0
  O  O12  1  0.778663  0.113787  0.739341  1.0
  O  O13  1  0.192759  0.824835  0.610924  1.0
  O  O14  1  0.221337  0.886213  0.260659  1.0
