# generated using pymatgen
data_Bi
_symmetry_space_group_name_H-M   'P 1'
_cell_length_a   4.63243920
_cell_length_b   4.63243891
_cell_length_c   4.63243930
_cell_angle_alpha   60.09161157
_cell_angle_beta   60.09161394
_cell_angle_gamma   60.09160874
_symmetry_Int_Tables_number   1
_chemical_formula_structural   Bi
_chemical_formula_sum   Bi2
_cell_volume   70.43925713
_cell_formula_units_Z   2
loop_
 _symmetry_equiv_pos_site_id
 _symmetry_equiv_pos_as_xyz
  1  'x, y, z'
loop_
 _atom_site_type_symbol
 _atom_site_label
 _atom_site_symmetry_multiplicity
 _atom_site_fract_x
 _atom_site_fract_y
 _atom_site_fract_z
 _atom_site_occupancy
  Bi  Bi1  1  0.250000  0.250000  0.250000  1.0
  Bi  Bi2  1  0.750000  0.750000  0.750000  1.0
