# generated using pymatgen
data_Nd2TeO2
_symmetry_space_group_name_H-M   'P 1'
_cell_length_a   4.07424466
_cell_length_b   4.07424466
_cell_length_c   7.11081783
_cell_angle_alpha   106.64746387
_cell_angle_beta   106.64746388
_cell_angle_gamma   90.00000000
_symmetry_Int_Tables_number   1
_chemical_formula_structural   Nd2TeO2
_chemical_formula_sum   'Nd2 Te1 O2'
_cell_volume   107.91442100
_cell_formula_units_Z   1
loop_
 _symmetry_equiv_pos_site_id
 _symmetry_equiv_pos_as_xyz
  1  'x, y, z'
loop_
 _atom_site_type_symbol
 _atom_site_label
 _atom_site_symmetry_multiplicity
 _atom_site_fract_x
 _atom_site_fract_y
 _atom_site_fract_z
 _atom_site_occupancy
  Nd  Nd1  1  0.660133  0.660133  0.320266  1.0
  Nd  Nd2  1  0.339867  0.339867  0.679734  1.0
  Te  Te3  1  0.000000  0.000000  0.000000  1.0
  O  O4  1  0.250000  0.750000  0.500000  1.0
  O  O5  1  0.750000  0.250000  0.500000  1.0
