# generated using pymatgen
data_MgCO3
_symmetry_space_group_name_H-M   'P 1'
_cell_length_a   3.64681423
_cell_length_b   5.16286441
_cell_length_c   5.16285657
_cell_angle_alpha   110.97250735
_cell_angle_beta   90.00009148
_cell_angle_gamma   90.00008577
_symmetry_Int_Tables_number   1
_chemical_formula_structural   MgCO3
_chemical_formula_sum   'Mg2 C2 O6'
_cell_volume   90.76660558
_cell_formula_units_Z   2
loop_
 _symmetry_equiv_pos_site_id
 _symmetry_equiv_pos_as_xyz
  1  'x, y, z'
loop_
 _atom_site_type_symbol
 _atom_site_label
 _atom_site_symmetry_multiplicity
 _atom_site_fract_x
 _atom_site_fract_y
 _atom_site_fract_z
 _atom_site_occupancy
  Mg  Mg1  1  0.750001  0.787573  0.212426  1.0
  Mg  Mg2  1  0.250001  0.212426  0.787574  1.0
  C  C3  1  0.999999  0.347451  0.347451  1.0
  C  C4  1  0.500000  0.652549  0.652549  1.0
  O  O5  1  0.852532  0.345939  0.106732  1.0
  O  O6  1  0.250000  0.582807  0.417192  1.0
  O  O7  1  0.352533  0.654061  0.893268  1.0
  O  O8  1  0.647468  0.893268  0.654060  1.0
  O  O9  1  0.750000  0.417193  0.582808  1.0
  O  O10  1  0.147466  0.106732  0.345939  1.0
