# generated using pymatgen
data_RhN2
_symmetry_space_group_name_H-M   'P 1'
_cell_length_a   4.93515358
_cell_length_b   4.91313322
_cell_length_c   4.96059558
_cell_angle_alpha   90.00000000
_cell_angle_beta   109.02871111
_cell_angle_gamma   90.00000000
_symmetry_Int_Tables_number   1
_chemical_formula_structural   RhN2
_chemical_formula_sum   'Rh4 N8'
_cell_volume   113.70723633
_cell_formula_units_Z   4
loop_
 _symmetry_equiv_pos_site_id
 _symmetry_equiv_pos_as_xyz
  1  'x, y, z'
loop_
 _atom_site_type_symbol
 _atom_site_label
 _atom_site_symmetry_multiplicity
 _atom_site_fract_x
 _atom_site_fract_y
 _atom_site_fract_z
 _atom_site_occupancy
  Rh  Rh1  1  0.239892  0.998377  0.230321  1.0
  Rh  Rh2  1  0.239892  0.501623  0.730321  1.0
  Rh  Rh3  1  0.760108  0.498377  0.269679  1.0
  Rh  Rh4  1  0.760108  0.001623  0.769679  1.0
  N  N5  1  0.190273  0.585660  0.300095  1.0
  N  N6  1  0.314678  0.084408  0.674979  1.0
  N  N7  1  0.685322  0.915592  0.325021  1.0
  N  N8  1  0.190273  0.914340  0.800095  1.0
  N  N9  1  0.809727  0.085660  0.199905  1.0
  N  N10  1  0.809727  0.414340  0.699905  1.0
  N  N11  1  0.685322  0.584408  0.825021  1.0
  N  N12  1  0.314678  0.415592  0.174979  1.0
