# generated using pymatgen
data_Si5Pt12
_symmetry_space_group_name_H-M   'P 1'
_cell_length_a   5.61863224
_cell_length_b   13.57091870
_cell_length_c   13.57091870
_cell_angle_alpha   90.00000000
_cell_angle_beta   90.00000000
_cell_angle_gamma   90.00000000
_symmetry_Int_Tables_number   1
_chemical_formula_structural   Si5Pt12
_chemical_formula_sum   'Si20 Pt48'
_cell_volume   1034.78256898
_cell_formula_units_Z   4
loop_
 _symmetry_equiv_pos_site_id
 _symmetry_equiv_pos_as_xyz
  1  'x, y, z'
loop_
 _atom_site_type_symbol
 _atom_site_label
 _atom_site_symmetry_multiplicity
 _atom_site_fract_x
 _atom_site_fract_y
 _atom_site_fract_z
 _atom_site_occupancy
  Si  Si1  1  0.985420  0.634434  0.435374  1.0
  Si  Si2  1  0.565609  0.636864  0.942981  1.0
  Si  Si3  1  0.434391  0.057019  0.136864  1.0
  Si  Si4  1  0.434391  0.442981  0.363136  1.0
  Si  Si5  1  0.565609  0.863136  0.557019  1.0
  Si  Si6  1  0.500000  0.750000  0.250000  1.0
  Si  Si7  1  0.014580  0.935374  0.365566  1.0
  Si  Si8  1  0.985420  0.865566  0.064626  1.0
  Si  Si9  1  0.434391  0.363136  0.057019  1.0
  Si  Si10  1  0.014580  0.365566  0.564626  1.0
  Si  Si11  1  0.014580  0.134434  0.935374  1.0
  Si  Si12  1  0.985420  0.435374  0.865566  1.0
  Si  Si13  1  0.565609  0.557019  0.636864  1.0
  Si  Si14  1  0.014580  0.564626  0.134434  1.0
  Si  Si15  1  0.434391  0.136864  0.442981  1.0
  Si  Si16  1  0.945313  0.250000  0.250000  1.0
  Si  Si17  1  0.985420  0.064626  0.634434  1.0
  Si  Si18  1  0.054687  0.750000  0.750000  1.0
  Si  Si19  1  0.565609  0.942981  0.863136  1.0
  Si  Si20  1  0.500000  0.250000  0.750000  1.0
  Pt  Pt21  1  0.307154  0.768371  0.896806  1.0
  Pt  Pt22  1  0.097925  0.957133  0.916018  1.0
  Pt  Pt23  1  0.307154  0.896806  0.731629  1.0
  Pt  Pt24  1  0.692846  0.268371  0.396806  1.0
  Pt  Pt25  1  0.192958  0.284699  0.397131  1.0
  Pt  Pt26  1  0.097925  0.583982  0.957133  1.0
  Pt  Pt27  1  0.463004  0.963705  0.403320  1.0
  Pt  Pt28  1  0.307154  0.731629  0.603194  1.0
  Pt  Pt29  1  0.463004  0.403320  0.536295  1.0
  Pt  Pt30  1  0.755072  0.405648  0.712920  1.0
  Pt  Pt31  1  0.244928  0.905648  0.212920  1.0
  Pt  Pt32  1  0.807042  0.897131  0.715301  1.0
  Pt  Pt33  1  0.755072  0.787080  0.405648  1.0
  Pt  Pt34  1  0.244928  0.287080  0.905648  1.0
  Pt  Pt35  1  0.536996  0.596680  0.463705  1.0
  Pt  Pt36  1  0.902075  0.042867  0.083982  1.0
  Pt  Pt37  1  0.692846  0.396806  0.231629  1.0
  Pt  Pt38  1  0.244928  0.594352  0.287080  1.0
  Pt  Pt39  1  0.536996  0.903320  0.036295  1.0
  Pt  Pt40  1  0.692846  0.103194  0.268371  1.0
  Pt  Pt41  1  0.902075  0.083982  0.457133  1.0
  Pt  Pt42  1  0.254256  0.103789  0.769684  1.0
  Pt  Pt43  1  0.463004  0.536295  0.096680  1.0
  Pt  Pt44  1  0.244928  0.212920  0.594352  1.0
  Pt  Pt45  1  0.097925  0.916018  0.542867  1.0
  Pt  Pt46  1  0.755072  0.094352  0.787080  1.0
  Pt  Pt47  1  0.192958  0.215301  0.102869  1.0
  Pt  Pt48  1  0.463004  0.096680  0.963705  1.0
  Pt  Pt49  1  0.807042  0.784699  0.897131  1.0
  Pt  Pt50  1  0.745744  0.269684  0.896211  1.0
  Pt  Pt51  1  0.902075  0.416018  0.042867  1.0
  Pt  Pt52  1  0.536996  0.463705  0.903320  1.0
  Pt  Pt53  1  0.755072  0.712920  0.094352  1.0
  Pt  Pt54  1  0.192958  0.397131  0.215301  1.0
  Pt  Pt55  1  0.254256  0.396211  0.730316  1.0
  Pt  Pt56  1  0.807042  0.715301  0.602869  1.0
  Pt  Pt57  1  0.254256  0.730316  0.103789  1.0
  Pt  Pt58  1  0.902075  0.457133  0.416018  1.0
  Pt  Pt59  1  0.745744  0.603789  0.269684  1.0
  Pt  Pt60  1  0.192958  0.102869  0.284699  1.0
  Pt  Pt61  1  0.807042  0.602869  0.784699  1.0
  Pt  Pt62  1  0.745744  0.896211  0.230316  1.0
  Pt  Pt63  1  0.536996  0.036295  0.596680  1.0
  Pt  Pt64  1  0.097925  0.542867  0.583982  1.0
  Pt  Pt65  1  0.745744  0.230316  0.603789  1.0
  Pt  Pt66  1  0.692846  0.231629  0.103194  1.0
  Pt  Pt67  1  0.307154  0.603194  0.768371  1.0
  Pt  Pt68  1  0.254256  0.769684  0.396211  1.0
