# generated using pymatgen
data_BaEu2CoO5
_symmetry_space_group_name_H-M   'P 1'
_cell_length_a   3.77247054
_cell_length_b   5.97652844
_cell_length_c   6.86774825
_cell_angle_alpha   115.83120990
_cell_angle_beta   105.94661691
_cell_angle_gamma   89.98251177
_symmetry_Int_Tables_number   1
_chemical_formula_structural   BaEu2CoO5
_chemical_formula_sum   'Ba1 Eu2 Co1 O5'
_cell_volume   132.72573027
_cell_formula_units_Z   1
loop_
 _symmetry_equiv_pos_site_id
 _symmetry_equiv_pos_as_xyz
  1  'x, y, z'
loop_
 _atom_site_type_symbol
 _atom_site_label
 _atom_site_symmetry_multiplicity
 _atom_site_fract_x
 _atom_site_fract_y
 _atom_site_fract_z
 _atom_site_occupancy
  Ba  Ba1  1  0.000000  0.000000  0.000000  1.0
  Eu  Eu2  1  0.206562  0.706494  0.413089  1.0
  Eu  Eu3  1  0.793438  0.293506  0.586911  1.0
  Co  Co4  1  0.500000  0.500000  0.000000  1.0
  O  O5  1  0.359364  0.118912  0.718549  1.0
  O  O6  1  0.640636  0.881088  0.281451  1.0
  O  O7  1  0.640689  0.400612  0.281475  1.0
  O  O8  1  0.359311  0.599388  0.718525  1.0
  O  O9  1  0.000000  0.500000  0.000000  1.0
