# generated using pymatgen
data_Cs2LiYCl6
_symmetry_space_group_name_H-M   'P 1'
_cell_length_a   7.51489060
_cell_length_b   7.51489091
_cell_length_c   7.51489089
_cell_angle_alpha   59.99999891
_cell_angle_beta   59.99999849
_cell_angle_gamma   59.99999853
_symmetry_Int_Tables_number   1
_chemical_formula_structural   Cs2LiYCl6
_chemical_formula_sum   'Cs2 Li1 Y1 Cl6'
_cell_volume   300.09102804
_cell_formula_units_Z   1
loop_
 _symmetry_equiv_pos_site_id
 _symmetry_equiv_pos_as_xyz
  1  'x, y, z'
loop_
 _atom_site_type_symbol
 _atom_site_label
 _atom_site_symmetry_multiplicity
 _atom_site_fract_x
 _atom_site_fract_y
 _atom_site_fract_z
 _atom_site_occupancy
  Cs  Cs1  1  0.250000  0.250000  0.250000  1.0
  Cs  Cs2  1  0.750000  0.750000  0.750000  1.0
  Li  Li3  1  0.500000  0.500000  0.500000  1.0
  Y  Y4  1  0.000000  0.000000  0.000000  1.0
  Cl  Cl5  1  0.249681  0.750319  0.249681  1.0
  Cl  Cl6  1  0.750319  0.750319  0.249681  1.0
  Cl  Cl7  1  0.750319  0.249681  0.750319  1.0
  Cl  Cl8  1  0.750319  0.249681  0.249681  1.0
  Cl  Cl9  1  0.249681  0.750319  0.750319  1.0
  Cl  Cl10  1  0.249681  0.249681  0.750319  1.0
