# generated using pymatgen
data_Sr2C(NCl)2
_symmetry_space_group_name_H-M   'P 1'
_cell_length_a   4.30281028
_cell_length_b   5.31327788
_cell_length_c   7.34312256
_cell_angle_alpha   97.14221033
_cell_angle_beta   90.00000000
_cell_angle_gamma   113.88555573
_symmetry_Int_Tables_number   1
_chemical_formula_structural   Sr2C(NCl)2
_chemical_formula_sum   'Sr2 C1 N2 Cl2'
_cell_volume   152.07513153
_cell_formula_units_Z   1
loop_
 _symmetry_equiv_pos_site_id
 _symmetry_equiv_pos_as_xyz
  1  'x, y, z'
loop_
 _atom_site_type_symbol
 _atom_site_label
 _atom_site_symmetry_multiplicity
 _atom_site_fract_x
 _atom_site_fract_y
 _atom_site_fract_z
 _atom_site_occupancy
  Sr  Sr1  1  0.682650  0.365301  0.271955  1.0
  Sr  Sr2  1  0.317350  0.634699  0.728045  1.0
  C  C3  1  0.000000  0.000000  0.500000  1.0
  N  N4  1  0.115377  0.230753  0.445896  1.0
  N  N5  1  0.884623  0.769247  0.554104  1.0
  Cl  Cl6  1  0.370022  0.740043  0.147545  1.0
  Cl  Cl7  1  0.629978  0.259957  0.852455  1.0
