# generated using pymatgen
data_UMn2
_symmetry_space_group_name_H-M   'P 1'
_cell_length_a   4.40602902
_cell_length_b   5.04887571
_cell_length_c   5.04887589
_cell_angle_alpha   62.46160808
_cell_angle_beta   64.12956499
_cell_angle_gamma   64.12955862
_symmetry_Int_Tables_number   1
_chemical_formula_structural   UMn2
_chemical_formula_sum   'U2 Mn4'
_cell_volume   85.64758396
_cell_formula_units_Z   2
loop_
 _symmetry_equiv_pos_site_id
 _symmetry_equiv_pos_as_xyz
  1  'x, y, z'
loop_
 _atom_site_type_symbol
 _atom_site_label
 _atom_site_symmetry_multiplicity
 _atom_site_fract_x
 _atom_site_fract_y
 _atom_site_fract_z
 _atom_site_occupancy
  U  U1  1  0.134730  0.115270  0.615270  1.0
  U  U2  1  0.865270  0.884730  0.384730  1.0
  Mn  Mn3  1  0.500000  0.000000  0.000000  1.0
  Mn  Mn4  1  0.500000  0.500000  0.500000  1.0
  Mn  Mn5  1  0.500000  0.500000  0.000000  1.0
  Mn  Mn6  1  0.000000  0.500000  0.000000  1.0
