# generated using pymatgen
data_PrCoGe
_symmetry_space_group_name_H-M   'P 1'
_cell_length_a   4.16011576
_cell_length_b   4.16011576
_cell_length_c   6.98091635
_cell_angle_alpha   90.00000000
_cell_angle_beta   90.00000000
_cell_angle_gamma   90.00000000
_symmetry_Int_Tables_number   1
_chemical_formula_structural   PrCoGe
_chemical_formula_sum   'Pr2 Co2 Ge2'
_cell_volume   120.81566956
_cell_formula_units_Z   2
loop_
 _symmetry_equiv_pos_site_id
 _symmetry_equiv_pos_as_xyz
  1  'x, y, z'
loop_
 _atom_site_type_symbol
 _atom_site_label
 _atom_site_symmetry_multiplicity
 _atom_site_fract_x
 _atom_site_fract_y
 _atom_site_fract_z
 _atom_site_occupancy
  Pr  Pr1  1  0.250000  0.250000  0.311780  1.0
  Pr  Pr2  1  0.750000  0.750000  0.688220  1.0
  Co  Co3  1  0.250000  0.750000  0.000000  1.0
  Co  Co4  1  0.750000  0.250000  0.000000  1.0
  Ge  Ge5  1  0.750000  0.750000  0.181100  1.0
  Ge  Ge6  1  0.250000  0.250000  0.818900  1.0
