# generated using pymatgen
data_Nd(NiAs)2
_symmetry_space_group_name_H-M   'P 1'
_cell_length_a   4.09720992
_cell_length_b   4.09720966
_cell_length_c   5.80915258
_cell_angle_alpha   110.64955400
_cell_angle_beta   110.64955252
_cell_angle_gamma   90.00000222
_symmetry_Int_Tables_number   1
_chemical_formula_structural   Nd(NiAs)2
_chemical_formula_sum   'Nd1 Ni2 As2'
_cell_volume   84.52564371
_cell_formula_units_Z   1
loop_
 _symmetry_equiv_pos_site_id
 _symmetry_equiv_pos_as_xyz
  1  'x, y, z'
loop_
 _atom_site_type_symbol
 _atom_site_label
 _atom_site_symmetry_multiplicity
 _atom_site_fract_x
 _atom_site_fract_y
 _atom_site_fract_z
 _atom_site_occupancy
  Nd  Nd1  1  0.000000  0.000000  0.000000  1.0
  Ni  Ni2  1  0.750000  0.250000  0.500000  1.0
  Ni  Ni3  1  0.250000  0.750000  0.500000  1.0
  As  As4  1  0.367825  0.367825  0.735649  1.0
  As  As5  1  0.632175  0.632175  0.264351  1.0
