# generated using pymatgen
data_Sr2Cu(BrO)2
_symmetry_space_group_name_H-M   'P 1'
_cell_length_a   3.99400458
_cell_length_b   3.99400387
_cell_length_c   9.87839964
_cell_angle_alpha   101.66321171
_cell_angle_beta   101.66320849
_cell_angle_gamma   89.99999426
_symmetry_Int_Tables_number   1
_chemical_formula_structural   Sr2Cu(BrO)2
_chemical_formula_sum   'Sr2 Cu1 Br2 O2'
_cell_volume   151.00362982
_cell_formula_units_Z   1
loop_
 _symmetry_equiv_pos_site_id
 _symmetry_equiv_pos_as_xyz
  1  'x, y, z'
loop_
 _atom_site_type_symbol
 _atom_site_label
 _atom_site_symmetry_multiplicity
 _atom_site_fract_x
 _atom_site_fract_y
 _atom_site_fract_z
 _atom_site_occupancy
  Sr  Sr1  1  0.589913  0.589913  0.179827  1.0
  Sr  Sr2  1  0.410087  0.410087  0.820173  1.0
  Cu  Cu3  1  0.000000  0.000000  0.000000  1.0
  Br  Br4  1  0.832108  0.832108  0.664216  1.0
  Br  Br5  1  0.167892  0.167892  0.335784  1.0
  O  O6  1  0.500000  0.000000  0.000000  1.0
  O  O7  1  0.000000  0.500000  0.000000  1.0
