# generated using pymatgen
data_ReO3
_symmetry_space_group_name_H-M   'P 1'
_cell_length_a   3.79423566
_cell_length_b   5.36236402
_cell_length_c   5.36236402
_cell_angle_alpha   90.01368381
_cell_angle_beta   90.00000000
_cell_angle_gamma   90.00000000
_symmetry_Int_Tables_number   1
_chemical_formula_structural   ReO3
_chemical_formula_sum   'Re2 O6'
_cell_volume   109.10304555
_cell_formula_units_Z   2
loop_
 _symmetry_equiv_pos_site_id
 _symmetry_equiv_pos_as_xyz
  1  'x, y, z'
loop_
 _atom_site_type_symbol
 _atom_site_label
 _atom_site_symmetry_multiplicity
 _atom_site_fract_x
 _atom_site_fract_y
 _atom_site_fract_z
 _atom_site_occupancy
  Re  Re1  1  0.500000  0.500017  0.499970  1.0
  Re  Re2  1  0.500000  0.999970  0.000017  1.0
  O  O3  1  0.500000  0.237814  0.737814  1.0
  O  O4  1  0.500000  0.737757  0.762225  1.0
  O  O5  1  0.500000  0.262225  0.237757  1.0
  O  O6  1  0.500000  0.762208  0.262208  1.0
  O  O7  1  0.000000  0.499953  0.500057  1.0
  O  O8  1  0.000000  0.000057  0.999953  1.0
