# generated using pymatgen
data_Pm2O3
_symmetry_space_group_name_H-M   'P 1'
_cell_length_a   3.82338598
_cell_length_b   3.82338610
_cell_length_c   6.04109043
_cell_angle_alpha   90.00000000
_cell_angle_beta   90.00000000
_cell_angle_gamma   119.99999893
_symmetry_Int_Tables_number   1
_chemical_formula_structural   Pm2O3
_chemical_formula_sum   'Pm2 O3'
_cell_volume   76.47901281
_cell_formula_units_Z   1
loop_
 _symmetry_equiv_pos_site_id
 _symmetry_equiv_pos_as_xyz
  1  'x, y, z'
loop_
 _atom_site_type_symbol
 _atom_site_label
 _atom_site_symmetry_multiplicity
 _atom_site_fract_x
 _atom_site_fract_y
 _atom_site_fract_z
 _atom_site_occupancy
  Pm  Pm1  1  0.666667  0.333333  0.750912  1.0
  Pm  Pm2  1  0.333333  0.666667  0.249087  1.0
  O  O3  1  0.333333  0.666667  0.644906  1.0
  O  O4  1  0.000000  0.000000  0.000000  1.0
  O  O5  1  0.666667  0.333333  0.355094  1.0
