# generated using pymatgen
data_Ca(SiPd)2
_symmetry_space_group_name_H-M   'P 1'
_cell_length_a   4.25308898
_cell_length_b   4.25308866
_cell_length_c   5.76506795
_cell_angle_alpha   111.64577503
_cell_angle_beta   111.64577335
_cell_angle_gamma   89.99999873
_symmetry_Int_Tables_number   1
_chemical_formula_structural   Ca(SiPd)2
_chemical_formula_sum   'Ca1 Si2 Pd2'
_cell_volume   88.96955425
_cell_formula_units_Z   1
loop_
 _symmetry_equiv_pos_site_id
 _symmetry_equiv_pos_as_xyz
  1  'x, y, z'
loop_
 _atom_site_type_symbol
 _atom_site_label
 _atom_site_symmetry_multiplicity
 _atom_site_fract_x
 _atom_site_fract_y
 _atom_site_fract_z
 _atom_site_occupancy
  Ca  Ca1  1  0.000000  0.000000  0.000000  1.0
  Si  Si2  1  0.378431  0.378431  0.756863  1.0
  Si  Si3  1  0.621569  0.621569  0.243137  1.0
  Pd  Pd4  1  0.750000  0.250000  0.500000  1.0
  Pd  Pd5  1  0.250000  0.750000  0.500000  1.0
