# generated using pymatgen
data_YbCuGe
_symmetry_space_group_name_H-M   'P 1'
_cell_length_a   4.30490796
_cell_length_b   4.30490829
_cell_length_c   7.04126276
_cell_angle_alpha   90.00000000
_cell_angle_beta   90.00000000
_cell_angle_gamma   119.99999743
_symmetry_Int_Tables_number   1
_chemical_formula_structural   YbCuGe
_chemical_formula_sum   'Yb2 Cu2 Ge2'
_cell_volume   113.00794268
_cell_formula_units_Z   2
loop_
 _symmetry_equiv_pos_site_id
 _symmetry_equiv_pos_as_xyz
  1  'x, y, z'
loop_
 _atom_site_type_symbol
 _atom_site_label
 _atom_site_symmetry_multiplicity
 _atom_site_fract_x
 _atom_site_fract_y
 _atom_site_fract_z
 _atom_site_occupancy
  Yb  Yb1  1  0.000000  0.000000  0.997518  1.0
  Yb  Yb2  1  0.000000  0.000000  0.497518  1.0
  Cu  Cu3  1  0.666667  0.333333  0.238673  1.0
  Cu  Cu4  1  0.333333  0.666667  0.738673  1.0
  Ge  Ge5  1  0.666667  0.333333  0.750909  1.0
  Ge  Ge6  1  0.333333  0.666667  0.250909  1.0
