# generated using pymatgen
data_Ga
_symmetry_space_group_name_H-M   'P 1'
_cell_length_a   5.27294934
_cell_length_b   5.27294931
_cell_length_c   5.27294921
_cell_angle_alpha   109.47122425
_cell_angle_beta   109.47122419
_cell_angle_gamma   109.47122300
_symmetry_Int_Tables_number   1
_chemical_formula_structural   Ga
_chemical_formula_sum   Ga6
_cell_volume   112.85968701
_cell_formula_units_Z   6
loop_
 _symmetry_equiv_pos_site_id
 _symmetry_equiv_pos_as_xyz
  1  'x, y, z'
loop_
 _atom_site_type_symbol
 _atom_site_label
 _atom_site_symmetry_multiplicity
 _atom_site_fract_x
 _atom_site_fract_y
 _atom_site_fract_z
 _atom_site_occupancy
  Ga  Ga1  1  0.125000  0.750000  0.875000  1.0
  Ga  Ga2  1  0.625000  0.375000  0.250000  1.0
  Ga  Ga3  1  0.375000  0.250000  0.625000  1.0
  Ga  Ga4  1  0.750000  0.875000  0.125000  1.0
  Ga  Ga5  1  0.250000  0.625000  0.375000  1.0
  Ga  Ga6  1  0.875000  0.125000  0.750000  1.0
