# generated using pymatgen
data_Cs2CoO3
_symmetry_space_group_name_H-M   'P 1'
_cell_length_a   6.10693634
_cell_length_b   7.08783599
_cell_length_c   13.99739226
_cell_angle_alpha   90.00000000
_cell_angle_beta   90.00000000
_cell_angle_gamma   115.51859548
_symmetry_Int_Tables_number   1
_chemical_formula_structural   Cs2CoO3
_chemical_formula_sum   'Cs8 Co4 O12'
_cell_volume   546.77062710
_cell_formula_units_Z   4
loop_
 _symmetry_equiv_pos_site_id
 _symmetry_equiv_pos_as_xyz
  1  'x, y, z'
loop_
 _atom_site_type_symbol
 _atom_site_label
 _atom_site_symmetry_multiplicity
 _atom_site_fract_x
 _atom_site_fract_y
 _atom_site_fract_z
 _atom_site_occupancy
  Cs  Cs1  1  0.057149  0.114299  0.859551  1.0
  Cs  Cs2  1  0.942851  0.885701  0.140449  1.0
  Cs  Cs3  1  0.442851  0.885701  0.359551  1.0
  Cs  Cs4  1  0.557149  0.114299  0.640449  1.0
  Cs  Cs5  1  0.859987  0.719975  0.577050  1.0
  Cs  Cs6  1  0.140013  0.280025  0.422950  1.0
  Cs  Cs7  1  0.640013  0.280025  0.077050  1.0
  Cs  Cs8  1  0.359987  0.719975  0.922950  1.0
  Co  Co9  1  0.238025  0.476052  0.675500  1.0
  Co  Co10  1  0.761975  0.523948  0.324500  1.0
  Co  Co11  1  0.261975  0.523948  0.175500  1.0
  Co  Co12  1  0.738025  0.476052  0.824500  1.0
  O  O13  1  0.322254  0.644508  0.575258  1.0
  O  O14  1  0.677746  0.355492  0.424742  1.0
  O  O15  1  0.177746  0.355492  0.075258  1.0
  O  O16  1  0.822254  0.644508  0.924742  1.0
  O  O17  1  0.104894  0.209789  0.641653  1.0
  O  O18  1  0.895106  0.790211  0.358347  1.0
  O  O19  1  0.395106  0.790211  0.141653  1.0
  O  O20  1  0.604894  0.209789  0.858347  1.0
  O  O21  1  0.017185  0.534369  0.750000  1.0
  O  O22  1  0.482815  0.465631  0.250000  1.0
  O  O23  1  0.982815  0.465631  0.250000  1.0
  O  O24  1  0.517185  0.534369  0.750000  1.0
