# generated using pymatgen
data_TmZrSb
_symmetry_space_group_name_H-M   'P 1'
_cell_length_a   4.25903573
_cell_length_b   4.25903559
_cell_length_c   8.75116971
_cell_angle_alpha   104.08380216
_cell_angle_beta   104.08380168
_cell_angle_gamma   89.99999965
_symmetry_Int_Tables_number   1
_chemical_formula_structural   TmZrSb
_chemical_formula_sum   'Tm2 Zr2 Sb2'
_cell_volume   149.04492184
_cell_formula_units_Z   2
loop_
 _symmetry_equiv_pos_site_id
 _symmetry_equiv_pos_as_xyz
  1  'x, y, z'
loop_
 _atom_site_type_symbol
 _atom_site_label
 _atom_site_symmetry_multiplicity
 _atom_site_fract_x
 _atom_site_fract_y
 _atom_site_fract_z
 _atom_site_occupancy
  Tm  Tm1  1  0.324336  0.324336  0.648672  1.0
  Tm  Tm2  1  0.675664  0.675664  0.351328  1.0
  Zr  Zr3  1  0.500000  0.000000  0.000000  1.0
  Zr  Zr4  1  0.000000  0.500000  0.000000  1.0
  Sb  Sb5  1  0.135307  0.135307  0.270615  1.0
  Sb  Sb6  1  0.864693  0.864693  0.729385  1.0
