# generated using pymatgen
data_F2
_symmetry_space_group_name_H-M   'P 1'
_cell_length_a   3.20314676
_cell_length_b   3.20314664
_cell_length_c   7.25475461
_cell_angle_alpha   79.52505544
_cell_angle_beta   79.52505589
_cell_angle_gamma   61.60666728
_symmetry_Int_Tables_number   1
_chemical_formula_structural   F2
_chemical_formula_sum   F4
_cell_volume   63.99699554
_cell_formula_units_Z   2
loop_
 _symmetry_equiv_pos_site_id
 _symmetry_equiv_pos_as_xyz
  1  'x, y, z'
loop_
 _atom_site_type_symbol
 _atom_site_label
 _atom_site_symmetry_multiplicity
 _atom_site_fract_x
 _atom_site_fract_y
 _atom_site_fract_z
 _atom_site_occupancy
  F  F1  1  0.505035  0.505035  0.400858  1.0
  F  F2  1  0.949754  0.949754  0.099118  1.0
  F  F3  1  0.494965  0.494965  0.599142  1.0
  F  F4  1  0.050246  0.050246  0.900882  1.0
