# generated using pymatgen
data_RbPO3
_symmetry_space_group_name_H-M   'P 1'
_cell_length_a   4.86253143
_cell_length_b   6.07376339
_cell_length_c   7.34768246
_cell_angle_alpha   114.40340303
_cell_angle_beta   90.00000000
_cell_angle_gamma   90.00000000
_symmetry_Int_Tables_number   1
_chemical_formula_structural   RbPO3
_chemical_formula_sum   'Rb2 P2 O6'
_cell_volume   197.61800617
_cell_formula_units_Z   2
loop_
 _symmetry_equiv_pos_site_id
 _symmetry_equiv_pos_as_xyz
  1  'x, y, z'
loop_
 _atom_site_type_symbol
 _atom_site_label
 _atom_site_symmetry_multiplicity
 _atom_site_fract_x
 _atom_site_fract_y
 _atom_site_fract_z
 _atom_site_occupancy
  Rb  Rb1  1  0.250000  0.656111  0.312204  1.0
  Rb  Rb2  1  0.750000  0.343889  0.687796  1.0
  P  P3  1  0.250000  0.922369  0.844766  1.0
  P  P4  1  0.750000  0.077632  0.155235  1.0
  O  O5  1  0.750000  0.347643  0.268759  1.0
  O  O6  1  0.750000  0.921182  0.268852  1.0
  O  O7  1  0.250000  0.652356  0.731241  1.0
  O  O8  1  0.250000  0.078818  0.731149  1.0
  O  O9  1  0.499999  0.999999  0.000000  1.0
  O  O10  1  0.000000  0.999999  0.000000  1.0
