# generated using pymatgen
data_Sm(NiAs)2
_symmetry_space_group_name_H-M   'P 1'
_cell_length_a   4.07383561
_cell_length_b   4.07383586
_cell_length_c   5.78145007
_cell_angle_alpha   110.62925162
_cell_angle_beta   110.62925309
_cell_angle_gamma   89.99999482
_symmetry_Int_Tables_number   1
_chemical_formula_structural   Sm(NiAs)2
_chemical_formula_sum   'Sm1 Ni2 As2'
_cell_volume   83.19135532
_cell_formula_units_Z   1
loop_
 _symmetry_equiv_pos_site_id
 _symmetry_equiv_pos_as_xyz
  1  'x, y, z'
loop_
 _atom_site_type_symbol
 _atom_site_label
 _atom_site_symmetry_multiplicity
 _atom_site_fract_x
 _atom_site_fract_y
 _atom_site_fract_z
 _atom_site_occupancy
  Sm  Sm1  1  0.000000  0.000000  0.000000  1.0
  Ni  Ni2  1  0.250000  0.750000  0.500000  1.0
  Ni  Ni3  1  0.750000  0.250000  0.500000  1.0
  As  As4  1  0.369501  0.369501  0.739001  1.0
  As  As5  1  0.630499  0.630499  0.260999  1.0
