# generated using pymatgen
data_Sr2Cu(IO)2
_symmetry_space_group_name_H-M   'P 1'
_cell_length_a   4.05924191
_cell_length_b   4.05924176
_cell_length_c   10.73303809
_cell_angle_alpha   100.90028978
_cell_angle_beta   100.90028936
_cell_angle_gamma   89.99999491
_symmetry_Int_Tables_number   1
_chemical_formula_structural   Sr2Cu(IO)2
_chemical_formula_sum   'Sr2 Cu1 I2 O2'
_cell_volume   170.41165142
_cell_formula_units_Z   1
loop_
 _symmetry_equiv_pos_site_id
 _symmetry_equiv_pos_as_xyz
  1  'x, y, z'
loop_
 _atom_site_type_symbol
 _atom_site_label
 _atom_site_symmetry_multiplicity
 _atom_site_fract_x
 _atom_site_fract_y
 _atom_site_fract_z
 _atom_site_occupancy
  Sr  Sr1  1  0.418732  0.418732  0.837464  1.0
  Sr  Sr2  1  0.581253  0.581253  0.162506  1.0
  Cu  Cu3  1  0.000032  0.000032  0.000064  1.0
  I  I4  1  0.166542  0.166542  0.333084  1.0
  I  I5  1  0.833446  0.833446  0.666892  1.0
  O  O6  1  0.499998  0.999998  0.999995  1.0
  O  O7  1  0.999998  0.499998  0.999995  1.0
