# generated using pymatgen
data_Ag2PdO2
_symmetry_space_group_name_H-M   'P 1'
_cell_length_a   3.05727614
_cell_length_b   4.59611479
_cell_length_c   5.80449800
_cell_angle_alpha   113.33883729
_cell_angle_beta   105.26917333
_cell_angle_gamma   89.99999993
_symmetry_Int_Tables_number   1
_chemical_formula_structural   Ag2PdO2
_chemical_formula_sum   'Ag2 Pd1 O2'
_cell_volume   71.74229380
_cell_formula_units_Z   1
loop_
 _symmetry_equiv_pos_site_id
 _symmetry_equiv_pos_as_xyz
  1  'x, y, z'
loop_
 _atom_site_type_symbol
 _atom_site_label
 _atom_site_symmetry_multiplicity
 _atom_site_fract_x
 _atom_site_fract_y
 _atom_site_fract_z
 _atom_site_occupancy
  Ag  Ag1  1  0.359412  0.359251  0.718825  1.0
  Ag  Ag2  1  0.640588  0.640749  0.281175  1.0
  Pd  Pd3  1  0.000000  0.000000  0.000000  1.0
  O  O4  1  0.637127  0.137269  0.274255  1.0
  O  O5  1  0.362873  0.862731  0.725745  1.0
