# generated using pymatgen
data_SmBi2BrO4
_symmetry_space_group_name_H-M   'P 1'
_cell_length_a   3.95827814
_cell_length_b   3.95830671
_cell_length_c   9.40433042
_cell_angle_alpha   90.00000000
_cell_angle_beta   90.00000000
_cell_angle_gamma   90.00000000
_symmetry_Int_Tables_number   1
_chemical_formula_structural   SmBi2BrO4
_chemical_formula_sum   'Sm1 Bi2 Br1 O4'
_cell_volume   147.34779123
_cell_formula_units_Z   1
loop_
 _symmetry_equiv_pos_site_id
 _symmetry_equiv_pos_as_xyz
  1  'x, y, z'
loop_
 _atom_site_type_symbol
 _atom_site_label
 _atom_site_symmetry_multiplicity
 _atom_site_fract_x
 _atom_site_fract_y
 _atom_site_fract_z
 _atom_site_occupancy
  Sm  Sm1  1  0.000000  0.000000  0.000000  1.0
  Bi  Bi2  1  0.500000  0.500000  0.270089  1.0
  Bi  Bi3  1  0.500000  0.500000  0.729912  1.0
  Br  Br4  1  0.000000  0.000000  0.500001  1.0
  O  O5  1  0.500000  0.000000  0.152725  1.0
  O  O6  1  0.500000  0.000000  0.847273  1.0
  O  O7  1  0.000000  0.500000  0.847273  1.0
  O  O8  1  0.000000  0.500000  0.152727  1.0
