# generated using pymatgen
data_ErTaO4
_symmetry_space_group_name_H-M   'P 1'
_cell_length_a   5.08240145
_cell_length_b   5.32201690
_cell_length_c   6.51893145
_cell_angle_alpha   111.79687344
_cell_angle_beta   110.56072991
_cell_angle_gamma   95.42874378
_symmetry_Int_Tables_number   1
_chemical_formula_structural   ErTaO4
_chemical_formula_sum   'Er2 Ta2 O8'
_cell_volume   148.06908797
_cell_formula_units_Z   2
loop_
 _symmetry_equiv_pos_site_id
 _symmetry_equiv_pos_as_xyz
  1  'x, y, z'
loop_
 _atom_site_type_symbol
 _atom_site_label
 _atom_site_symmetry_multiplicity
 _atom_site_fract_x
 _atom_site_fract_y
 _atom_site_fract_z
 _atom_site_occupancy
  Er  Er1  1  0.381421  0.631421  0.262841  1.0
  Er  Er2  1  0.618579  0.368579  0.737159  1.0
  Ta  Ta3  1  0.852193  0.102193  0.204385  1.0
  Ta  Ta4  1  0.147807  0.897807  0.795615  1.0
  O  O5  1  0.001138  0.785741  0.063179  1.0
  O  O6  1  0.562041  0.277438  0.063179  1.0
  O  O7  1  0.998862  0.214259  0.936821  1.0
  O  O8  1  0.437959  0.722562  0.936821  1.0
  O  O9  1  0.209874  0.369055  0.420293  1.0
  O  O10  1  0.710419  0.051238  0.420293  1.0
  O  O11  1  0.790126  0.630945  0.579707  1.0
  O  O12  1  0.289581  0.948762  0.579707  1.0
