# generated using pymatgen
data_V2CdO6
_symmetry_space_group_name_H-M   'P 1'
_cell_length_a   3.61384815
_cell_length_b   5.11471428
_cell_length_c   7.08481306
_cell_angle_alpha   110.95169870
_cell_angle_beta   90.01389845
_cell_angle_gamma   110.67036994
_symmetry_Int_Tables_number   1
_chemical_formula_structural   V2CdO6
_chemical_formula_sum   'V2 Cd1 O6'
_cell_volume   113.21843278
_cell_formula_units_Z   1
loop_
 _symmetry_equiv_pos_site_id
 _symmetry_equiv_pos_as_xyz
  1  'x, y, z'
loop_
 _atom_site_type_symbol
 _atom_site_label
 _atom_site_symmetry_multiplicity
 _atom_site_fract_x
 _atom_site_fract_y
 _atom_site_fract_z
 _atom_site_occupancy
  V  V1  1  0.187011  0.373503  0.637571  1.0
  V  V2  1  0.812989  0.626497  0.362429  1.0
  Cd  Cd3  1  0.000000  0.000000  0.000000  1.0
  O  O4  1  0.030386  0.060297  0.697780  1.0
  O  O5  1  0.969614  0.939703  0.302220  1.0
  O  O6  1  0.334924  0.669685  0.870236  1.0
  O  O7  1  0.665076  0.330315  0.129764  1.0
  O  O8  1  0.303518  0.607258  0.435694  1.0
  O  O9  1  0.696482  0.392742  0.564306  1.0
