# generated using pymatgen
data_U2TeN2
_symmetry_space_group_name_H-M   'P 1'
_cell_length_a   3.88032793
_cell_length_b   3.88032793
_cell_length_c   6.89568337
_cell_angle_alpha   106.34134282
_cell_angle_beta   106.34134279
_cell_angle_gamma   89.99999995
_symmetry_Int_Tables_number   1
_chemical_formula_structural   U2TeN2
_chemical_formula_sum   'U2 Te1 N2'
_cell_volume   95.25463719
_cell_formula_units_Z   1
loop_
 _symmetry_equiv_pos_site_id
 _symmetry_equiv_pos_as_xyz
  1  'x, y, z'
loop_
 _atom_site_type_symbol
 _atom_site_label
 _atom_site_symmetry_multiplicity
 _atom_site_fract_x
 _atom_site_fract_y
 _atom_site_fract_z
 _atom_site_occupancy
  U  U1  1  0.340617  0.340617  0.681234  1.0
  U  U2  1  0.659383  0.659383  0.318766  1.0
  Te  Te3  1  0.000000  0.000000  0.000000  1.0
  N  N4  1  0.250000  0.750000  0.500000  1.0
  N  N5  1  0.750000  0.250000  0.500000  1.0
