# generated using pymatgen
data_NaBiS2
_symmetry_space_group_name_H-M   'P 1'
_cell_length_a   5.76735108
_cell_length_b   5.76727830
_cell_length_c   7.17487039
_cell_angle_alpha   113.79084613
_cell_angle_beta   113.79237459
_cell_angle_gamma   89.78972412
_symmetry_Int_Tables_number   1
_chemical_formula_structural   NaBiS2
_chemical_formula_sum   'Na2 Bi2 S4'
_cell_volume   196.17253767
_cell_formula_units_Z   2
loop_
 _symmetry_equiv_pos_site_id
 _symmetry_equiv_pos_as_xyz
  1  'x, y, z'
loop_
 _atom_site_type_symbol
 _atom_site_label
 _atom_site_symmetry_multiplicity
 _atom_site_fract_x
 _atom_site_fract_y
 _atom_site_fract_z
 _atom_site_occupancy
  Na  Na1  1  0.997854  0.997094  0.997939  1.0
  Na  Na2  1  0.247843  0.746876  0.498022  1.0
  Bi  Bi3  1  0.731899  0.230939  0.497900  1.0
  Bi  Bi4  1  0.481931  0.480998  0.997880  1.0
  S  S5  1  0.009307  0.488623  0.978677  1.0
  S  S6  1  0.508594  0.027739  0.017055  1.0
  S  S7  1  0.739353  0.758472  0.478699  1.0
  S  S8  1  0.278467  0.257608  0.517058  1.0
