# generated using pymatgen
data_Rb2Pd(IBr2)2
_symmetry_space_group_name_H-M   'P 1'
_cell_length_a   7.53158855
_cell_length_b   7.53158849
_cell_length_c   7.53158852
_cell_angle_alpha   106.43902527
_cell_angle_beta   111.00826817
_cell_angle_gamma   111.00826375
_symmetry_Int_Tables_number   1
_chemical_formula_structural   Rb2Pd(IBr2)2
_chemical_formula_sum   'Rb2 Pd1 I2 Br4'
_cell_volume   328.19411123
_cell_formula_units_Z   1
loop_
 _symmetry_equiv_pos_site_id
 _symmetry_equiv_pos_as_xyz
  1  'x, y, z'
loop_
 _atom_site_type_symbol
 _atom_site_label
 _atom_site_symmetry_multiplicity
 _atom_site_fract_x
 _atom_site_fract_y
 _atom_site_fract_z
 _atom_site_occupancy
  Rb  Rb1  1  0.500000  0.250000  0.750000  1.0
  Rb  Rb2  1  0.500000  0.750000  0.250000  1.0
  Pd  Pd3  1  0.000000  0.000000  0.000000  1.0
  I  I4  1  0.000000  0.339796  0.339796  1.0
  I  I5  1  0.000000  0.660204  0.660204  1.0
  Br  Br6  1  0.000000  0.794287  0.205713  1.0
  Br  Br7  1  0.588573  0.794287  0.794287  1.0
  Br  Br8  1  0.000000  0.205713  0.794287  1.0
  Br  Br9  1  0.411427  0.205713  0.205713  1.0
