# generated using pymatgen
data_TaSn2
_symmetry_space_group_name_H-M   'P 1'
_cell_length_a   5.70538266
_cell_length_b   5.71066202
_cell_length_c   10.09217900
_cell_angle_alpha   81.88263951
_cell_angle_beta   73.58076255
_cell_angle_gamma   60.03056921
_symmetry_Int_Tables_number   1
_chemical_formula_structural   TaSn2
_chemical_formula_sum   'Ta4 Sn8'
_cell_volume   273.23626224
_cell_formula_units_Z   4
loop_
 _symmetry_equiv_pos_site_id
 _symmetry_equiv_pos_as_xyz
  1  'x, y, z'
loop_
 _atom_site_type_symbol
 _atom_site_label
 _atom_site_symmetry_multiplicity
 _atom_site_fract_x
 _atom_site_fract_y
 _atom_site_fract_z
 _atom_site_occupancy
  Ta  Ta1  1  0.252051  0.750000  0.495897  1.0
  Ta  Ta2  1  0.002051  0.250000  0.995897  1.0
  Ta  Ta3  1  0.747949  0.250000  0.504103  1.0
  Ta  Ta4  1  0.997949  0.750000  0.004103  1.0
  Sn  Sn5  1  0.706766  0.586468  0.250000  1.0
  Sn  Sn6  1  0.956766  0.086468  0.750000  1.0
  Sn  Sn7  1  0.293462  0.250000  0.413076  1.0
  Sn  Sn8  1  0.043234  0.913532  0.250000  1.0
  Sn  Sn9  1  0.543462  0.750000  0.913076  1.0
  Sn  Sn10  1  0.456538  0.250000  0.086924  1.0
  Sn  Sn11  1  0.293234  0.413532  0.750000  1.0
  Sn  Sn12  1  0.706538  0.750000  0.586924  1.0
