# generated using pymatgen
data_KLiZnO2
_symmetry_space_group_name_H-M   'P 1'
_cell_length_a   3.38706703
_cell_length_b   5.73792464
_cell_length_c   7.52357405
_cell_angle_alpha   76.56796440
_cell_angle_beta   76.98628586
_cell_angle_gamma   72.83607440
_symmetry_Int_Tables_number   1
_chemical_formula_structural   KLiZnO2
_chemical_formula_sum   'K2 Li2 Zn2 O4'
_cell_volume   133.94123828
_cell_formula_units_Z   2
loop_
 _symmetry_equiv_pos_site_id
 _symmetry_equiv_pos_as_xyz
  1  'x, y, z'
loop_
 _atom_site_type_symbol
 _atom_site_label
 _atom_site_symmetry_multiplicity
 _atom_site_fract_x
 _atom_site_fract_y
 _atom_site_fract_z
 _atom_site_occupancy
  K  K1  1  0.163348  0.302957  0.370068  1.0
  K  K2  1  0.836651  0.697043  0.629933  1.0
  Li  Li3  1  0.658880  0.627243  0.054993  1.0
  Li  Li4  1  0.341120  0.372757  0.945007  1.0
  Zn  Zn5  1  0.955881  0.905770  0.182459  1.0
  Zn  Zn6  1  0.044120  0.094230  0.817541  1.0
  O  O7  1  0.538598  0.229513  0.693355  1.0
  O  O8  1  0.461402  0.770486  0.306645  1.0
  O  O9  1  0.162015  0.738129  0.937851  1.0
  O  O10  1  0.837985  0.261871  0.062149  1.0
