# generated using pymatgen
data_Ba(BiPd)2
_symmetry_space_group_name_H-M   'P 1'
_cell_length_a   4.93026927
_cell_length_b   5.00686529
_cell_length_c   11.07051657
_cell_angle_alpha   91.48975267
_cell_angle_beta   90.00000000
_cell_angle_gamma   90.00000000
_symmetry_Int_Tables_number   1
_chemical_formula_structural   Ba(BiPd)2
_chemical_formula_sum   'Ba2 Bi4 Pd4'
_cell_volume   273.18547963
_cell_formula_units_Z   2
loop_
 _symmetry_equiv_pos_site_id
 _symmetry_equiv_pos_as_xyz
  1  'x, y, z'
loop_
 _atom_site_type_symbol
 _atom_site_label
 _atom_site_symmetry_multiplicity
 _atom_site_fract_x
 _atom_site_fract_y
 _atom_site_fract_z
 _atom_site_occupancy
  Ba  Ba1  1  0.750000  0.742005  0.241078  1.0
  Ba  Ba2  1  0.250000  0.257995  0.758922  1.0
  Bi  Bi3  1  0.750000  0.786364  0.881446  1.0
  Bi  Bi4  1  0.250000  0.751158  0.499089  1.0
  Bi  Bi5  1  0.750000  0.248842  0.500911  1.0
  Bi  Bi6  1  0.250000  0.213636  0.118554  1.0
  Pd  Pd7  1  0.250000  0.246667  0.373424  1.0
  Pd  Pd8  1  0.250000  0.696303  0.999197  1.0
  Pd  Pd9  1  0.750000  0.753333  0.626576  1.0
  Pd  Pd10  1  0.750000  0.303697  0.000803  1.0
