# generated using pymatgen
data_Ce(SiAu2)2
_symmetry_space_group_name_H-M   'P 1'
_cell_length_a   4.37286639
_cell_length_b   4.37004996
_cell_length_c   7.28578821
_cell_angle_alpha   90.00000000
_cell_angle_beta   107.46334172
_cell_angle_gamma   90.00000000
_symmetry_Int_Tables_number   1
_chemical_formula_structural   Ce(SiAu2)2
_chemical_formula_sum   'Ce1 Si2 Au4'
_cell_volume   132.81164838
_cell_formula_units_Z   1
loop_
 _symmetry_equiv_pos_site_id
 _symmetry_equiv_pos_as_xyz
  1  'x, y, z'
loop_
 _atom_site_type_symbol
 _atom_site_label
 _atom_site_symmetry_multiplicity
 _atom_site_fract_x
 _atom_site_fract_y
 _atom_site_fract_z
 _atom_site_occupancy
  Ce  Ce1  1  0.000000  0.000000  0.000000  1.0
  Si  Si2  1  0.584486  0.500000  0.168971  1.0
  Si  Si3  1  0.415514  0.500000  0.831029  1.0
  Au  Au4  1  0.173823  0.500000  0.347646  1.0
  Au  Au5  1  0.325959  0.000000  0.651916  1.0
  Au  Au6  1  0.826177  0.500000  0.652354  1.0
  Au  Au7  1  0.674041  0.000000  0.348084  1.0
