# generated using pymatgen
data_HfAlPt
_symmetry_space_group_name_H-M   'P 1'
_cell_length_a   7.06631027
_cell_length_b   7.07002257
_cell_length_c   7.33312163
_cell_angle_alpha   90.00000000
_cell_angle_beta   90.00000000
_cell_angle_gamma   119.98262945
_symmetry_Int_Tables_number   1
_chemical_formula_structural   HfAlPt
_chemical_formula_sum   'Hf6 Al6 Pt6'
_cell_volume   317.32845269
_cell_formula_units_Z   6
loop_
 _symmetry_equiv_pos_site_id
 _symmetry_equiv_pos_as_xyz
  1  'x, y, z'
loop_
 _atom_site_type_symbol
 _atom_site_label
 _atom_site_symmetry_multiplicity
 _atom_site_fract_x
 _atom_site_fract_y
 _atom_site_fract_z
 _atom_site_occupancy
  Hf  Hf1  1  0.415684  0.393205  0.250000  1.0
  Hf  Hf2  1  0.977939  0.584610  0.250000  1.0
  Hf  Hf3  1  0.606525  0.022202  0.250000  1.0
  Hf  Hf4  1  0.022479  0.606795  0.750000  1.0
  Hf  Hf5  1  0.393329  0.415390  0.750000  1.0
  Hf  Hf6  1  0.584322  0.977798  0.750000  1.0
  Al  Al7  1  0.257941  0.000000  0.000000  1.0
  Al  Al8  1  0.742051  0.741992  0.000100  1.0
  Al  Al9  1  0.000059  0.258008  0.999900  1.0
  Al  Al10  1  0.257941  0.000000  0.500000  1.0
  Al  Al11  1  0.742051  0.741992  0.499900  1.0
  Al  Al12  1  0.000059  0.258008  0.500100  1.0
  Pt  Pt13  1  0.000098  0.000168  0.250000  1.0
  Pt  Pt14  1  0.999930  0.999832  0.750000  1.0
  Pt  Pt15  1  0.333174  0.666651  0.029906  1.0
  Pt  Pt16  1  0.333174  0.666651  0.470095  1.0
  Pt  Pt17  1  0.666522  0.333349  0.529906  1.0
  Pt  Pt18  1  0.666522  0.333349  0.970094  1.0
