# generated using pymatgen
data_AgPbBrO
_symmetry_space_group_name_H-M   'P 1'
_cell_length_a   4.02718000
_cell_length_b   4.02718000
_cell_length_c   14.24187372
_cell_angle_alpha   90.00000000
_cell_angle_beta   90.00000000
_cell_angle_gamma   90.00000000
_symmetry_Int_Tables_number   1
_chemical_formula_structural   AgPbBrO
_chemical_formula_sum   'Ag2 Pb2 Br2 O2'
_cell_volume   230.97725376
_cell_formula_units_Z   2
loop_
 _symmetry_equiv_pos_site_id
 _symmetry_equiv_pos_as_xyz
  1  'x, y, z'
loop_
 _atom_site_type_symbol
 _atom_site_label
 _atom_site_symmetry_multiplicity
 _atom_site_fract_x
 _atom_site_fract_y
 _atom_site_fract_z
 _atom_site_occupancy
  Ag  Ag1  1  0.250000  0.250000  0.407818  1.0
  Ag  Ag2  1  0.750000  0.750000  0.592182  1.0
  Pb  Pb3  1  0.750000  0.750000  0.084665  1.0
  Pb  Pb4  1  0.250000  0.250000  0.915335  1.0
  Br  Br5  1  0.750000  0.750000  0.385807  1.0
  Br  Br6  1  0.250000  0.250000  0.614193  1.0
  O  O7  1  0.750000  0.250000  0.000000  1.0
  O  O8  1  0.250000  0.750000  0.000000  1.0
