# generated using pymatgen
data_DyBi2ClO4
_symmetry_space_group_name_H-M   'P 1'
_cell_length_a   3.89736545
_cell_length_b   3.89733786
_cell_length_c   9.07588200
_cell_angle_alpha   90.00000000
_cell_angle_beta   90.00000000
_cell_angle_gamma   90.00000000
_symmetry_Int_Tables_number   1
_chemical_formula_structural   DyBi2ClO4
_chemical_formula_sum   'Dy1 Bi2 Cl1 O4'
_cell_volume   137.85674755
_cell_formula_units_Z   1
loop_
 _symmetry_equiv_pos_site_id
 _symmetry_equiv_pos_as_xyz
  1  'x, y, z'
loop_
 _atom_site_type_symbol
 _atom_site_label
 _atom_site_symmetry_multiplicity
 _atom_site_fract_x
 _atom_site_fract_y
 _atom_site_fract_z
 _atom_site_occupancy
  Dy  Dy1  1  0.000000  0.000000  0.000001  1.0
  Bi  Bi2  1  0.500000  0.500000  0.722973  1.0
  Bi  Bi3  1  0.500000  0.500000  0.277029  1.0
  Cl  Cl4  1  0.000000  0.000000  0.499995  1.0
  O  O5  1  0.000000  0.500000  0.152681  1.0
  O  O6  1  0.500000  0.000000  0.152680  1.0
  O  O7  1  0.500000  0.000000  0.847321  1.0
  O  O8  1  0.000000  0.500000  0.847320  1.0
