# generated using pymatgen
data_Be12Pt
_symmetry_space_group_name_H-M   'P 1'
_cell_length_a   4.17097034
_cell_length_b   5.53737690
_cell_length_c   5.53737652
_cell_angle_alpha   81.84552871
_cell_angle_beta   67.87554576
_cell_angle_gamma   67.87554497
_symmetry_Int_Tables_number   1
_chemical_formula_structural   Be12Pt
_chemical_formula_sum   'Be12 Pt1'
_cell_volume   109.75196407
_cell_formula_units_Z   1
loop_
 _symmetry_equiv_pos_site_id
 _symmetry_equiv_pos_as_xyz
  1  'x, y, z'
loop_
 _atom_site_type_symbol
 _atom_site_label
 _atom_site_symmetry_multiplicity
 _atom_site_fract_x
 _atom_site_fract_y
 _atom_site_fract_z
 _atom_site_occupancy
  Be  Be1  1  0.000000  0.651698  0.348302  1.0
  Be  Be2  1  0.000000  0.500000  0.000000  1.0
  Be  Be3  1  0.651698  0.348302  0.348302  1.0
  Be  Be4  1  0.500000  0.224810  0.775190  1.0
  Be  Be5  1  0.000000  0.348302  0.651698  1.0
  Be  Be6  1  0.500000  0.000000  0.500000  1.0
  Be  Be7  1  0.348302  0.651698  0.651698  1.0
  Be  Be8  1  0.275190  0.224810  0.224810  1.0
  Be  Be9  1  0.500000  0.775190  0.224810  1.0
  Be  Be10  1  0.000000  0.000000  0.500000  1.0
  Be  Be11  1  0.724810  0.775190  0.775190  1.0
  Be  Be12  1  0.500000  0.500000  0.000000  1.0
  Pt  Pt13  1  0.000000  0.000000  0.000000  1.0
