# generated using pymatgen
data_Mn4Si7
_symmetry_space_group_name_H-M   'P 1'
_cell_length_a   5.50224847
_cell_length_b   5.50246188
_cell_length_c   17.36608446
_cell_angle_alpha   90.00000000
_cell_angle_beta   90.00000000
_cell_angle_gamma   89.96970902
_symmetry_Int_Tables_number   1
_chemical_formula_structural   Mn4Si7
_chemical_formula_sum   'Mn16 Si28'
_cell_volume   525.77397942
_cell_formula_units_Z   4
loop_
 _symmetry_equiv_pos_site_id
 _symmetry_equiv_pos_as_xyz
  1  'x, y, z'
loop_
 _atom_site_type_symbol
 _atom_site_label
 _atom_site_symmetry_multiplicity
 _atom_site_fract_x
 _atom_site_fract_y
 _atom_site_fract_z
 _atom_site_occupancy
  Mn  Mn1  1  0.000000  0.500000  0.310192  1.0
  Mn  Mn2  1  0.500000  0.500000  0.870019  1.0
  Mn  Mn3  1  0.500000  0.000000  0.192945  1.0
  Mn  Mn4  1  0.500000  0.500000  0.629218  1.0
  Mn  Mn5  1  0.500000  0.500000  0.128718  1.0
  Mn  Mn6  1  0.500000  0.500000  0.369808  1.0
  Mn  Mn7  1  0.000000  0.000000  0.499015  1.0
  Mn  Mn8  1  0.500000  0.000000  0.933279  1.0
  Mn  Mn9  1  0.000000  0.000000  0.252582  1.0
  Mn  Mn10  1  0.500000  0.000000  0.433670  1.0
  Mn  Mn11  1  0.000000  0.500000  0.563912  1.0
  Mn  Mn12  1  0.000000  0.000000  0.998627  1.0
  Mn  Mn13  1  0.500000  0.000000  0.692999  1.0
  Mn  Mn14  1  0.000000  0.500000  0.063585  1.0
  Mn  Mn15  1  0.000000  0.500000  0.810172  1.0
  Mn  Mn16  1  0.000000  0.000000  0.752488  1.0
  Si  Si17  1  0.785044  0.846416  0.107321  1.0
  Si  Si18  1  0.328362  0.661851  0.747696  1.0
  Si  Si19  1  0.212526  0.344848  0.954593  1.0
  Si  Si20  1  0.214956  0.153584  0.107321  1.0
  Si  Si21  1  0.156870  0.312246  0.679424  1.0
  Si  Si22  1  0.213018  0.845853  0.607959  1.0
  Si  Si23  1  0.156584  0.812628  0.882913  1.0
  Si  Si24  1  0.671402  0.162045  0.314849  1.0
  Si  Si25  1  0.843130  0.687754  0.679424  1.0
  Si  Si26  1  0.156829  0.187779  0.383176  1.0
  Si  Si27  1  0.672045  0.661617  0.247536  1.0
  Si  Si28  1  0.156739  0.688870  0.179052  1.0
  Si  Si29  1  0.787474  0.655152  0.954593  1.0
  Si  Si30  1  0.328598  0.837955  0.314849  1.0
  Si  Si31  1  0.786982  0.154147  0.607959  1.0
  Si  Si32  1  0.345857  0.746469  0.030016  1.0
  Si  Si33  1  0.328534  0.162089  0.814824  1.0
  Si  Si34  1  0.327955  0.338383  0.247536  1.0
  Si  Si35  1  0.671466  0.837911  0.814824  1.0
  Si  Si36  1  0.654143  0.253531  0.030016  1.0
  Si  Si37  1  0.213238  0.654231  0.454819  1.0
  Si  Si38  1  0.786762  0.345769  0.454819  1.0
  Si  Si39  1  0.843171  0.812221  0.383176  1.0
  Si  Si40  1  0.653925  0.750044  0.531357  1.0
  Si  Si41  1  0.346075  0.249956  0.531357  1.0
  Si  Si42  1  0.671638  0.338149  0.747696  1.0
  Si  Si43  1  0.843261  0.311130  0.179052  1.0
  Si  Si44  1  0.843416  0.187372  0.882913  1.0
