# generated using pymatgen
data_NiF3
_symmetry_space_group_name_H-M   'P 1'
_cell_length_a   5.24084817
_cell_length_b   5.24084764
_cell_length_c   5.24084792
_cell_angle_alpha   56.19484544
_cell_angle_beta   56.19484936
_cell_angle_gamma   56.19485055
_symmetry_Int_Tables_number   1
_chemical_formula_structural   NiF3
_chemical_formula_sum   'Ni2 F6'
_cell_volume   92.82145044
_cell_formula_units_Z   2
loop_
 _symmetry_equiv_pos_site_id
 _symmetry_equiv_pos_as_xyz
  1  'x, y, z'
loop_
 _atom_site_type_symbol
 _atom_site_label
 _atom_site_symmetry_multiplicity
 _atom_site_fract_x
 _atom_site_fract_y
 _atom_site_fract_z
 _atom_site_occupancy
  Ni  Ni1  1  0.000000  0.000000  0.000000  1.0
  Ni  Ni2  1  0.500000  0.500000  0.500000  1.0
  F  F3  1  0.620780  0.246462  0.884637  1.0
  F  F4  1  0.884637  0.620780  0.246462  1.0
  F  F5  1  0.246462  0.884637  0.620780  1.0
  F  F6  1  0.379220  0.753538  0.115363  1.0
  F  F7  1  0.115363  0.379220  0.753538  1.0
  F  F8  1  0.753538  0.115363  0.379220  1.0
