# generated using pymatgen
data_SrTaNO2
_symmetry_space_group_name_H-M   'P 1'
_cell_length_a   5.75652816
_cell_length_b   5.75653072
_cell_length_c   5.75653152
_cell_angle_alpha   88.41765228
_cell_angle_beta   120.91773742
_cell_angle_gamma   120.91777375
_symmetry_Int_Tables_number   1
_chemical_formula_structural   SrTaNO2
_chemical_formula_sum   'Sr2 Ta2 N2 O4'
_cell_volume   132.95995548
_cell_formula_units_Z   2
loop_
 _symmetry_equiv_pos_site_id
 _symmetry_equiv_pos_as_xyz
  1  'x, y, z'
loop_
 _atom_site_type_symbol
 _atom_site_label
 _atom_site_symmetry_multiplicity
 _atom_site_fract_x
 _atom_site_fract_y
 _atom_site_fract_z
 _atom_site_occupancy
  Sr  Sr1  1  0.500000  0.250000  0.750000  1.0
  Sr  Sr2  1  0.500001  0.750001  0.250000  1.0
  Ta  Ta3  1  0.000000  0.000003  0.000003  1.0
  Ta  Ta4  1  0.000000  0.500003  0.500003  1.0
  N  N5  1  0.000001  0.249999  0.249999  1.0
  N  N6  1  0.999999  0.749998  0.749998  1.0
  O  O7  1  0.089146  0.294573  0.794572  1.0
  O  O8  1  0.500000  0.794573  0.705427  1.0
  O  O9  1  0.910853  0.705425  0.205425  1.0
  O  O10  1  0.500000  0.205426  0.294572  1.0
