# generated using pymatgen
data_Mo2O5
_symmetry_space_group_name_H-M   'P 1'
_cell_length_a   3.93524500
_cell_length_b   4.37339676
_cell_length_c   12.27074171
_cell_angle_alpha   89.99990253
_cell_angle_beta   89.99984990
_cell_angle_gamma   89.99982589
_symmetry_Int_Tables_number   1
_chemical_formula_structural   Mo2O5
_chemical_formula_sum   'Mo4 O10'
_cell_volume   211.18422260
_cell_formula_units_Z   2
loop_
 _symmetry_equiv_pos_site_id
 _symmetry_equiv_pos_as_xyz
  1  'x, y, z'
loop_
 _atom_site_type_symbol
 _atom_site_label
 _atom_site_symmetry_multiplicity
 _atom_site_fract_x
 _atom_site_fract_y
 _atom_site_fract_z
 _atom_site_occupancy
  Mo  Mo1  1  0.018558  0.891665  0.151571  1.0
  Mo  Mo2  1  0.518557  0.108264  0.348422  1.0
  Mo  Mo3  1  0.518571  0.108262  0.651612  1.0
  Mo  Mo4  1  0.018565  0.891839  0.848395  1.0
  O  O5  1  0.518552  0.994794  0.182372  1.0
  O  O6  1  0.018552  0.005119  0.317623  1.0
  O  O7  1  0.018562  0.005142  0.682372  1.0
  O  O8  1  0.518560  0.994886  0.817633  1.0
  O  O9  1  0.018585  0.497713  0.851398  1.0
  O  O10  1  0.518589  0.502288  0.648629  1.0
  O  O11  1  0.518577  0.502195  0.351474  1.0
  O  O12  1  0.518593  0.998678  0.500011  1.0
  O  O13  1  0.018595  0.001381  0.999999  1.0
  O  O14  1  0.018577  0.497772  0.148485  1.0
