# generated using pymatgen
data_ErU2S3O2
_symmetry_space_group_name_H-M   'P 1'
_cell_length_a   3.79708282
_cell_length_b   3.79708255
_cell_length_c   10.87300282
_cell_angle_alpha   100.05599480
_cell_angle_beta   100.05599411
_cell_angle_gamma   90.00000023
_symmetry_Int_Tables_number   1
_chemical_formula_structural   ErU2S3O2
_chemical_formula_sum   'Er1 U2 S3 O2'
_cell_volume   151.91042109
_cell_formula_units_Z   1
loop_
 _symmetry_equiv_pos_site_id
 _symmetry_equiv_pos_as_xyz
  1  'x, y, z'
loop_
 _atom_site_type_symbol
 _atom_site_label
 _atom_site_symmetry_multiplicity
 _atom_site_fract_x
 _atom_site_fract_y
 _atom_site_fract_z
 _atom_site_occupancy
  Er  Er1  1  0.500022  0.500022  0.000043  1.0
  U  U2  1  0.813833  0.813833  0.627667  1.0
  U  U3  1  0.186212  0.186212  0.372424  1.0
  S  S4  1  0.627968  0.627968  0.255937  1.0
  S  S5  1  0.999972  0.999972  0.999945  1.0
  S  S6  1  0.372008  0.372008  0.744016  1.0
  O  O7  1  0.249992  0.749992  0.499984  1.0
  O  O8  1  0.749992  0.249992  0.499984  1.0
