# generated using pymatgen
data_Tl(NiS)2
_symmetry_space_group_name_H-M   'P 1'
_cell_length_a   3.79643305
_cell_length_b   3.79643349
_cell_length_c   6.89223256
_cell_angle_alpha   105.98668007
_cell_angle_beta   105.98668179
_cell_angle_gamma   89.99999934
_symmetry_Int_Tables_number   1
_chemical_formula_structural   Tl(NiS)2
_chemical_formula_sum   'Tl1 Ni2 S2'
_cell_volume   91.49234498
_cell_formula_units_Z   1
loop_
 _symmetry_equiv_pos_site_id
 _symmetry_equiv_pos_as_xyz
  1  'x, y, z'
loop_
 _atom_site_type_symbol
 _atom_site_label
 _atom_site_symmetry_multiplicity
 _atom_site_fract_x
 _atom_site_fract_y
 _atom_site_fract_z
 _atom_site_occupancy
  Tl  Tl1  1  0.000000  0.000000  0.000000  1.0
  Ni  Ni2  1  0.250000  0.750000  0.500000  1.0
  Ni  Ni3  1  0.750000  0.250000  0.500000  1.0
  S  S4  1  0.344697  0.344697  0.689393  1.0
  S  S5  1  0.655303  0.655303  0.310607  1.0
