# generated using pymatgen
data_Er2Si2O7
_symmetry_space_group_name_H-M   'P 1'
_cell_length_a   4.77438423
_cell_length_b   5.65667342
_cell_length_c   5.65667333
_cell_angle_alpha   105.37122160
_cell_angle_beta   97.29082398
_cell_angle_gamma   97.29082567
_symmetry_Int_Tables_number   1
_chemical_formula_structural   Er2Si2O7
_chemical_formula_sum   'Er2 Si2 O7'
_cell_volume   144.04152453
_cell_formula_units_Z   1
loop_
 _symmetry_equiv_pos_site_id
 _symmetry_equiv_pos_as_xyz
  1  'x, y, z'
loop_
 _atom_site_type_symbol
 _atom_site_label
 _atom_site_symmetry_multiplicity
 _atom_site_fract_x
 _atom_site_fract_y
 _atom_site_fract_z
 _atom_site_occupancy
  Er  Er1  1  0.000000  0.308040  0.691960  1.0
  Er  Er2  1  0.000000  0.691960  0.308040  1.0
  Si  Si3  1  0.410353  0.218768  0.218768  1.0
  Si  Si4  1  0.589647  0.781232  0.781232  1.0
  O  O5  1  0.781046  0.915161  0.614608  1.0
  O  O6  1  0.218953  0.385392  0.084839  1.0
  O  O7  1  0.218953  0.084839  0.385392  1.0
  O  O8  1  0.781046  0.614608  0.915161  1.0
  O  O9  1  0.500000  0.000000  0.000000  1.0
  O  O10  1  0.285750  0.617006  0.617006  1.0
  O  O11  1  0.714250  0.382994  0.382994  1.0
