# generated using pymatgen
data_Rb2MnCl6
_symmetry_space_group_name_H-M   'P 1'
_cell_length_a   7.18360361
_cell_length_b   7.18360356
_cell_length_c   7.18360430
_cell_angle_alpha   60.00000162
_cell_angle_beta   60.00000185
_cell_angle_gamma   60.00000398
_symmetry_Int_Tables_number   1
_chemical_formula_structural   Rb2MnCl6
_chemical_formula_sum   'Rb2 Mn1 Cl6'
_cell_volume   262.12723436
_cell_formula_units_Z   1
loop_
 _symmetry_equiv_pos_site_id
 _symmetry_equiv_pos_as_xyz
  1  'x, y, z'
loop_
 _atom_site_type_symbol
 _atom_site_label
 _atom_site_symmetry_multiplicity
 _atom_site_fract_x
 _atom_site_fract_y
 _atom_site_fract_z
 _atom_site_occupancy
  Rb  Rb1  1  0.250000  0.250000  0.250000  1.0
  Rb  Rb2  1  0.750000  0.750000  0.750000  1.0
  Mn  Mn3  1  0.000000  0.000000  0.000000  1.0
  Cl  Cl4  1  0.225870  0.774130  0.774130  1.0
  Cl  Cl5  1  0.774130  0.225870  0.225870  1.0
  Cl  Cl6  1  0.774130  0.225870  0.774130  1.0
  Cl  Cl7  1  0.774130  0.774130  0.225870  1.0
  Cl  Cl8  1  0.225870  0.225870  0.774130  1.0
  Cl  Cl9  1  0.225870  0.774130  0.225870  1.0
