# generated using pymatgen
data_CsCu3O2
_symmetry_space_group_name_H-M   'P 1'
_cell_length_a   5.19399118
_cell_length_b   5.19393887
_cell_length_c   5.59190658
_cell_angle_alpha   90.00244656
_cell_angle_beta   89.99702241
_cell_angle_gamma   120.00064654
_symmetry_Int_Tables_number   1
_chemical_formula_structural   CsCu3O2
_chemical_formula_sum   'Cs1 Cu3 O2'
_cell_volume   130.64288146
_cell_formula_units_Z   1
loop_
 _symmetry_equiv_pos_site_id
 _symmetry_equiv_pos_as_xyz
  1  'x, y, z'
loop_
 _atom_site_type_symbol
 _atom_site_label
 _atom_site_symmetry_multiplicity
 _atom_site_fract_x
 _atom_site_fract_y
 _atom_site_fract_z
 _atom_site_occupancy
  Cs  Cs1  1  0.000000  0.000000  0.500000  1.0
  Cu  Cu2  1  0.500000  0.500000  0.000000  1.0
  Cu  Cu3  1  0.000000  0.500000  0.000000  1.0
  Cu  Cu4  1  0.500000  0.000000  0.000000  1.0
  O  O5  1  0.666677  0.333333  0.803665  1.0
  O  O6  1  0.333323  0.666667  0.196335  1.0
