# generated using pymatgen
data_CsCuO2
_symmetry_space_group_name_H-M   'P 1'
_cell_length_a   5.37531179
_cell_length_b   5.51505153
_cell_length_c   6.65662166
_cell_angle_alpha   90.00000000
_cell_angle_beta   113.81323719
_cell_angle_gamma   90.00000000
_symmetry_Int_Tables_number   1
_chemical_formula_structural   CsCuO2
_chemical_formula_sum   'Cs2 Cu2 O4'
_cell_volume   180.53640564
_cell_formula_units_Z   2
loop_
 _symmetry_equiv_pos_site_id
 _symmetry_equiv_pos_as_xyz
  1  'x, y, z'
loop_
 _atom_site_type_symbol
 _atom_site_label
 _atom_site_symmetry_multiplicity
 _atom_site_fract_x
 _atom_site_fract_y
 _atom_site_fract_z
 _atom_site_occupancy
  Cs  Cs1  1  0.682977  0.250000  0.365954  1.0
  Cs  Cs2  1  0.317023  0.750000  0.634046  1.0
  Cu  Cu3  1  0.998114  0.250000  0.996229  1.0
  Cu  Cu4  1  0.001886  0.750000  0.003771  1.0
  O  O5  1  0.899219  0.996707  0.798439  1.0
  O  O6  1  0.100781  0.003293  0.201561  1.0
  O  O7  1  0.100781  0.496707  0.201561  1.0
  O  O8  1  0.899219  0.503293  0.798439  1.0
