# generated using pymatgen
data_BaFe4O7
_symmetry_space_group_name_H-M   'P 1'
_cell_length_a   5.11693037
_cell_length_b   5.11693068
_cell_length_c   13.93661595
_cell_angle_alpha   90.00000000
_cell_angle_beta   90.00000000
_cell_angle_gamma   120.00000468
_symmetry_Int_Tables_number   1
_chemical_formula_structural   BaFe4O7
_chemical_formula_sum   'Ba2 Fe8 O14'
_cell_volume   316.01448120
_cell_formula_units_Z   2
loop_
 _symmetry_equiv_pos_site_id
 _symmetry_equiv_pos_as_xyz
  1  'x, y, z'
loop_
 _atom_site_type_symbol
 _atom_site_label
 _atom_site_symmetry_multiplicity
 _atom_site_fract_x
 _atom_site_fract_y
 _atom_site_fract_z
 _atom_site_occupancy
  Ba  Ba1  1  0.666667  0.333333  0.250000  1.0
  Ba  Ba2  1  0.333333  0.666667  0.750000  1.0
  Fe  Fe3  1  0.000000  0.000000  0.112616  1.0
  Fe  Fe4  1  0.000000  0.000000  0.612616  1.0
  Fe  Fe5  1  0.000000  0.000000  0.887384  1.0
  Fe  Fe6  1  0.000000  0.000000  0.387384  1.0
  Fe  Fe7  1  0.333333  0.666667  0.003247  1.0
  Fe  Fe8  1  0.666667  0.333333  0.503247  1.0
  Fe  Fe9  1  0.666667  0.333333  0.996753  1.0
  Fe  Fe10  1  0.333333  0.666667  0.496753  1.0
  O  O11  1  0.000000  0.000000  0.250000  1.0
  O  O12  1  0.000000  0.000000  0.750000  1.0
  O  O13  1  0.362437  0.007270  0.078658  1.0
  O  O14  1  0.355168  0.362437  0.578658  1.0
  O  O15  1  0.007270  0.644832  0.578658  1.0
  O  O16  1  0.992730  0.355168  0.078658  1.0
  O  O17  1  0.644832  0.637563  0.078658  1.0
  O  O18  1  0.637563  0.992730  0.578658  1.0
  O  O19  1  0.637563  0.992730  0.921342  1.0
  O  O20  1  0.644832  0.637563  0.421342  1.0
  O  O21  1  0.992730  0.355168  0.421342  1.0
  O  O22  1  0.007270  0.644832  0.921342  1.0
  O  O23  1  0.355168  0.362437  0.921342  1.0
  O  O24  1  0.362437  0.007270  0.421342  1.0
