# generated using pymatgen
data_SiO2
_symmetry_space_group_name_H-M   'P 1'
_cell_length_a   4.37524444
_cell_length_b   11.77223678
_cell_length_c   11.77223678
_cell_angle_alpha   90.00000000
_cell_angle_beta   90.00000000
_cell_angle_gamma   90.00000000
_symmetry_Int_Tables_number   1
_chemical_formula_structural   SiO2
_chemical_formula_sum   'Si16 O32'
_cell_volume   606.34569562
_cell_formula_units_Z   16
loop_
 _symmetry_equiv_pos_site_id
 _symmetry_equiv_pos_as_xyz
  1  'x, y, z'
loop_
 _atom_site_type_symbol
 _atom_site_label
 _atom_site_symmetry_multiplicity
 _atom_site_fract_x
 _atom_site_fract_y
 _atom_site_fract_z
 _atom_site_occupancy
  Si  Si1  1  0.287963  0.829210  0.987026  1.0
  Si  Si2  1  0.266319  0.334223  0.011933  1.0
  Si  Si3  1  0.287963  0.512974  0.829210  1.0
  Si  Si4  1  0.266319  0.488067  0.334223  1.0
  Si  Si5  1  0.733681  0.988067  0.834223  1.0
  Si  Si6  1  0.287963  0.670790  0.512974  1.0
  Si  Si7  1  0.733681  0.511933  0.665777  1.0
  Si  Si8  1  0.266319  0.165777  0.488067  1.0
  Si  Si9  1  0.712037  0.170790  0.012974  1.0
  Si  Si10  1  0.712037  0.012974  0.329210  1.0
  Si  Si11  1  0.266319  0.011933  0.165777  1.0
  Si  Si12  1  0.733681  0.834223  0.511933  1.0
  Si  Si13  1  0.712037  0.487026  0.170790  1.0
  Si  Si14  1  0.287963  0.987026  0.670790  1.0
  Si  Si15  1  0.733681  0.665777  0.988067  1.0
  Si  Si16  1  0.712037  0.329210  0.487026  1.0
  O  O17  1  0.864211  0.569551  0.075197  1.0
  O  O18  1  0.485753  0.391515  0.110901  1.0
  O  O19  1  0.984981  0.244906  0.438292  1.0
  O  O20  1  0.513071  0.062222  0.751090  1.0
  O  O21  1  0.486929  0.562222  0.251090  1.0
  O  O22  1  0.514247  0.889099  0.891515  1.0
  O  O23  1  0.135789  0.924803  0.069551  1.0
  O  O24  1  0.864211  0.075197  0.930449  1.0
  O  O25  1  0.864211  0.930449  0.424803  1.0
  O  O26  1  0.514247  0.610901  0.608485  1.0
  O  O27  1  0.486929  0.937778  0.248910  1.0
  O  O28  1  0.513071  0.437778  0.748910  1.0
  O  O29  1  0.135789  0.430449  0.924803  1.0
  O  O30  1  0.135789  0.575197  0.430449  1.0
  O  O31  1  0.984981  0.255094  0.061708  1.0
  O  O32  1  0.513071  0.751090  0.437778  1.0
  O  O33  1  0.984981  0.061708  0.244906  1.0
  O  O34  1  0.513071  0.748910  0.062222  1.0
  O  O35  1  0.135789  0.069551  0.575197  1.0
  O  O36  1  0.015019  0.561708  0.744906  1.0
  O  O37  1  0.864211  0.424803  0.569551  1.0
  O  O38  1  0.486929  0.251090  0.937778  1.0
  O  O39  1  0.015019  0.938292  0.755094  1.0
  O  O40  1  0.485753  0.110901  0.108485  1.0
  O  O41  1  0.514247  0.608485  0.889099  1.0
  O  O42  1  0.015019  0.744906  0.938292  1.0
  O  O43  1  0.984981  0.438292  0.255094  1.0
  O  O44  1  0.485753  0.389099  0.391515  1.0
  O  O45  1  0.015019  0.755094  0.561708  1.0
  O  O46  1  0.514247  0.891515  0.610901  1.0
  O  O47  1  0.486929  0.248910  0.562222  1.0
  O  O48  1  0.485753  0.108485  0.389099  1.0
