# generated using pymatgen
data_Cr(FeSe2)2
_symmetry_space_group_name_H-M   'P 1'
_cell_length_a   3.52689880
_cell_length_b   6.19380541
_cell_length_c   6.64291194
_cell_angle_alpha   115.93520192
_cell_angle_beta   105.39218860
_cell_angle_gamma   89.99377630
_symmetry_Int_Tables_number   1
_chemical_formula_structural   Cr(FeSe2)2
_chemical_formula_sum   'Cr1 Fe2 Se4'
_cell_volume   124.68790710
_cell_formula_units_Z   1
loop_
 _symmetry_equiv_pos_site_id
 _symmetry_equiv_pos_as_xyz
  1  'x, y, z'
loop_
 _atom_site_type_symbol
 _atom_site_label
 _atom_site_symmetry_multiplicity
 _atom_site_fract_x
 _atom_site_fract_y
 _atom_site_fract_z
 _atom_site_occupancy
  Cr  Cr1  1  0.000000  0.000000  0.000000  1.0
  Fe  Fe2  1  0.256048  0.307139  0.511986  1.0
  Fe  Fe3  1  0.743952  0.692861  0.488014  1.0
  Se  Se4  1  0.639916  0.980784  0.279863  1.0
  Se  Se5  1  0.887239  0.543294  0.774594  1.0
  Se  Se6  1  0.112761  0.456706  0.225406  1.0
  Se  Se7  1  0.360084  0.019216  0.720137  1.0
