# generated using pymatgen
data_C
_symmetry_space_group_name_H-M   'P 1'
_cell_length_a   14.55335407
_cell_length_b   14.55335411
_cell_length_c   14.55335349
_cell_angle_alpha   9.95675988
_cell_angle_beta   9.95675908
_cell_angle_gamma   9.95676072
_symmetry_Int_Tables_number   1
_chemical_formula_structural   C
_chemical_formula_sum   C14
_cell_volume   80.00665328
_cell_formula_units_Z   14
loop_
 _symmetry_equiv_pos_site_id
 _symmetry_equiv_pos_as_xyz
  1  'x, y, z'
loop_
 _atom_site_type_symbol
 _atom_site_label
 _atom_site_symmetry_multiplicity
 _atom_site_fract_x
 _atom_site_fract_y
 _atom_site_fract_z
 _atom_site_occupancy
  C  C1  1  0.410464  0.410464  0.410464  1.0
  C  C2  1  0.303695  0.303695  0.303695  1.0
  C  C3  1  0.589536  0.589536  0.589536  1.0
  C  C4  1  0.172575  0.172575  0.172575  1.0
  C  C5  1  0.827425  0.827425  0.827425  1.0
  C  C6  1  0.553387  0.553387  0.553387  1.0
  C  C7  1  0.208138  0.208138  0.208138  1.0
  C  C8  1  0.731887  0.731887  0.731887  1.0
  C  C9  1  0.268113  0.268113  0.268113  1.0
  C  C10  1  0.446613  0.446613  0.446613  1.0
  C  C11  1  0.017804  0.017804  0.017804  1.0
  C  C12  1  0.791862  0.791862  0.791862  1.0
  C  C13  1  0.696305  0.696305  0.696305  1.0
  C  C14  1  0.982196  0.982196  0.982196  1.0
