# generated using pymatgen
data_K2PdO2
_symmetry_space_group_name_H-M   'P 1'
_cell_length_a   3.18572725
_cell_length_b   5.55717959
_cell_length_c   5.55717975
_cell_angle_alpha   67.11480377
_cell_angle_beta   73.34359970
_cell_angle_gamma   73.34359396
_symmetry_Int_Tables_number   1
_chemical_formula_structural   K2PdO2
_chemical_formula_sum   'K2 Pd1 O2'
_cell_volume   85.10802561
_cell_formula_units_Z   1
loop_
 _symmetry_equiv_pos_site_id
 _symmetry_equiv_pos_as_xyz
  1  'x, y, z'
loop_
 _atom_site_type_symbol
 _atom_site_label
 _atom_site_symmetry_multiplicity
 _atom_site_fract_x
 _atom_site_fract_y
 _atom_site_fract_z
 _atom_site_occupancy
  K  K1  1  0.175394  0.324606  0.324606  1.0
  K  K2  1  0.824606  0.675394  0.675394  1.0
  Pd  Pd3  1  0.000000  0.000000  0.000000  1.0
  O  O4  1  0.500000  0.219627  0.780373  1.0
  O  O5  1  0.500000  0.780373  0.219627  1.0
