# generated using pymatgen
data_Ta3AlC2
_symmetry_space_group_name_H-M   'P 1'
_cell_length_a   3.10601222
_cell_length_b   3.10601208
_cell_length_c   19.26831715
_cell_angle_alpha   90.00000000
_cell_angle_beta   90.00000000
_cell_angle_gamma   120.00000154
_symmetry_Int_Tables_number   1
_chemical_formula_structural   Ta3AlC2
_chemical_formula_sum   'Ta6 Al2 C4'
_cell_volume   160.98325765
_cell_formula_units_Z   2
loop_
 _symmetry_equiv_pos_site_id
 _symmetry_equiv_pos_as_xyz
  1  'x, y, z'
loop_
 _atom_site_type_symbol
 _atom_site_label
 _atom_site_symmetry_multiplicity
 _atom_site_fract_x
 _atom_site_fract_y
 _atom_site_fract_z
 _atom_site_occupancy
  Ta  Ta1  1  0.333333  0.666667  0.134112  1.0
  Ta  Ta2  1  0.666667  0.333333  0.634112  1.0
  Ta  Ta3  1  0.333333  0.666667  0.365888  1.0
  Ta  Ta4  1  0.666667  0.333333  0.865888  1.0
  Ta  Ta5  1  0.000000  0.000000  0.500000  1.0
  Ta  Ta6  1  0.000000  0.000000  0.000000  1.0
  Al  Al7  1  0.000000  0.000000  0.250000  1.0
  Al  Al8  1  0.000000  0.000000  0.750000  1.0
  C  C9  1  0.666667  0.333333  0.431697  1.0
  C  C10  1  0.666667  0.333333  0.068303  1.0
  C  C11  1  0.333333  0.666667  0.568303  1.0
  C  C12  1  0.333333  0.666667  0.931697  1.0
