# generated using pymatgen
data_WO3
_symmetry_space_group_name_H-M   'P 1'
_cell_length_a   5.35073148
_cell_length_b   5.41828099
_cell_length_c   7.61885362
_cell_angle_alpha   90.00000000
_cell_angle_beta   89.96714885
_cell_angle_gamma   90.00000000
_symmetry_Int_Tables_number   1
_chemical_formula_structural   WO3
_chemical_formula_sum   'W4 O12'
_cell_volume   220.88399007
_cell_formula_units_Z   4
loop_
 _symmetry_equiv_pos_site_id
 _symmetry_equiv_pos_as_xyz
  1  'x, y, z'
loop_
 _atom_site_type_symbol
 _atom_site_label
 _atom_site_symmetry_multiplicity
 _atom_site_fract_x
 _atom_site_fract_y
 _atom_site_fract_z
 _atom_site_occupancy
  W  W1  1  0.500000  0.000000  0.000000  1.0
  W  W2  1  0.000001  0.499999  0.500000  1.0
  W  W3  1  0.500000  0.000000  0.499999  1.0
  W  W4  1  0.000000  0.499999  0.000000  1.0
  O  O5  1  0.719324  0.280564  0.468528  1.0
  O  O6  1  0.780676  0.780565  0.031472  1.0
  O  O7  1  0.280675  0.719436  0.531472  1.0
  O  O8  1  0.219325  0.219435  0.968528  1.0
  O  O9  1  0.218876  0.220007  0.531458  1.0
  O  O10  1  0.281124  0.720006  0.968542  1.0
  O  O11  1  0.781125  0.779993  0.468542  1.0
  O  O12  1  0.718875  0.279994  0.031458  1.0
  O  O13  1  0.063302  0.492786  0.250427  1.0
  O  O14  1  0.436699  0.992787  0.249572  1.0
  O  O15  1  0.563302  0.007213  0.750428  1.0
  O  O16  1  0.936699  0.507214  0.749573  1.0
