# generated using pymatgen
data_CoAsS
_symmetry_space_group_name_H-M   'P 1'
_cell_length_a   3.49466343
_cell_length_b   4.59551468
_cell_length_c   5.57301284
_cell_angle_alpha   90.00000000
_cell_angle_beta   90.00000000
_cell_angle_gamma   89.99870311
_symmetry_Int_Tables_number   1
_chemical_formula_structural   CoAsS
_chemical_formula_sum   'Co2 As2 S2'
_cell_volume   89.50134393
_cell_formula_units_Z   2
loop_
 _symmetry_equiv_pos_site_id
 _symmetry_equiv_pos_as_xyz
  1  'x, y, z'
loop_
 _atom_site_type_symbol
 _atom_site_label
 _atom_site_symmetry_multiplicity
 _atom_site_fract_x
 _atom_site_fract_y
 _atom_site_fract_z
 _atom_site_occupancy
  Co  Co1  1  0.750030  0.736468  0.497122  1.0
  Co  Co2  1  0.249970  0.263532  0.997122  1.0
  As  As3  1  0.250046  0.039270  0.371798  1.0
  As  As4  1  0.749954  0.960730  0.871798  1.0
  S  S5  1  0.749985  0.548259  0.124930  1.0
  S  S6  1  0.250015  0.451741  0.624930  1.0
