# generated using pymatgen
data_CaAlAu
_symmetry_space_group_name_H-M   'P 1'
_cell_length_a   4.55689252
_cell_length_b   7.33507019
_cell_length_c   7.80542253
_cell_angle_alpha   90.00000000
_cell_angle_beta   90.00000000
_cell_angle_gamma   90.00000000
_symmetry_Int_Tables_number   1
_chemical_formula_structural   CaAlAu
_chemical_formula_sum   'Ca4 Al4 Au4'
_cell_volume   260.89723531
_cell_formula_units_Z   4
loop_
 _symmetry_equiv_pos_site_id
 _symmetry_equiv_pos_as_xyz
  1  'x, y, z'
loop_
 _atom_site_type_symbol
 _atom_site_label
 _atom_site_symmetry_multiplicity
 _atom_site_fract_x
 _atom_site_fract_y
 _atom_site_fract_z
 _atom_site_occupancy
  Ca  Ca1  1  0.250000  0.014248  0.682822  1.0
  Ca  Ca2  1  0.250000  0.514248  0.817178  1.0
  Ca  Ca3  1  0.750000  0.985752  0.317178  1.0
  Ca  Ca4  1  0.750000  0.485752  0.182822  1.0
  Al  Al5  1  0.750000  0.845205  0.931724  1.0
  Al  Al6  1  0.250000  0.154795  0.068276  1.0
  Al  Al7  1  0.250000  0.654795  0.431724  1.0
  Al  Al8  1  0.750000  0.345205  0.568276  1.0
  Au  Au9  1  0.250000  0.791592  0.112441  1.0
  Au  Au10  1  0.750000  0.208408  0.887559  1.0
  Au  Au11  1  0.750000  0.708408  0.612441  1.0
  Au  Au12  1  0.250000  0.291592  0.387559  1.0
