# generated using pymatgen
data_Tl2CS3
_symmetry_space_group_name_H-M   'P 1'
_cell_length_a   6.79020349
_cell_length_b   6.57618573
_cell_length_c   9.21462287
_cell_angle_alpha   72.00893000
_cell_angle_beta   68.38011391
_cell_angle_gamma   58.91746703
_symmetry_Int_Tables_number   1
_chemical_formula_structural   Tl2CS3
_chemical_formula_sum   'Tl4 C2 S6'
_cell_volume   323.94069929
_cell_formula_units_Z   2
loop_
 _symmetry_equiv_pos_site_id
 _symmetry_equiv_pos_as_xyz
  1  'x, y, z'
loop_
 _atom_site_type_symbol
 _atom_site_label
 _atom_site_symmetry_multiplicity
 _atom_site_fract_x
 _atom_site_fract_y
 _atom_site_fract_z
 _atom_site_occupancy
  Tl  Tl1  1  0.547224  0.682788  0.620240  1.0
  Tl  Tl2  1  0.452776  0.317212  0.379760  1.0
  Tl  Tl3  1  0.149749  0.182788  0.120240  1.0
  Tl  Tl4  1  0.850251  0.817212  0.879760  1.0
  C  C5  1  0.939676  0.750000  0.250000  1.0
  C  C6  1  0.060324  0.250000  0.750000  1.0
  S  S7  1  0.183811  0.678300  0.090472  1.0
  S  S8  1  0.685759  0.750000  0.250000  1.0
  S  S9  1  0.816189  0.321700  0.909528  1.0
  S  S10  1  0.952582  0.821700  0.409528  1.0
  S  S11  1  0.047418  0.178300  0.590472  1.0
  S  S12  1  0.314241  0.250000  0.750000  1.0
