# generated using pymatgen
data_Bi2Pt
_symmetry_space_group_name_H-M   'P 1'
_cell_length_a   7.20515538
_cell_length_b   7.20515549
_cell_length_c   5.60763537
_cell_angle_alpha   90.00000000
_cell_angle_beta   90.00000000
_cell_angle_gamma   119.99999953
_symmetry_Int_Tables_number   1
_chemical_formula_structural   Bi2Pt
_chemical_formula_sum   'Bi6 Pt3'
_cell_volume   252.11408451
_cell_formula_units_Z   3
loop_
 _symmetry_equiv_pos_site_id
 _symmetry_equiv_pos_as_xyz
  1  'x, y, z'
loop_
 _atom_site_type_symbol
 _atom_site_label
 _atom_site_symmetry_multiplicity
 _atom_site_fract_x
 _atom_site_fract_y
 _atom_site_fract_z
 _atom_site_occupancy
  Bi  Bi1  1  0.331904  0.997589  0.255011  1.0
  Bi  Bi2  1  0.997589  0.665685  0.744989  1.0
  Bi  Bi3  1  0.668096  0.002411  0.744989  1.0
  Bi  Bi4  1  0.665685  0.668096  0.255011  1.0
  Bi  Bi5  1  0.334315  0.331904  0.744989  1.0
  Bi  Bi6  1  0.002411  0.334315  0.255011  1.0
  Pt  Pt7  1  0.666667  0.333333  0.003442  1.0
  Pt  Pt8  1  0.000000  0.000000  0.000000  1.0
  Pt  Pt9  1  0.333333  0.666667  0.996558  1.0
