# generated using pymatgen
data_ReS2
_symmetry_space_group_name_H-M   'P 1'
_cell_length_a   6.41909998
_cell_length_b   6.52305928
_cell_length_c   13.87388947
_cell_angle_alpha   77.55646681
_cell_angle_beta   89.46546571
_cell_angle_gamma   61.16336308
_symmetry_Int_Tables_number   1
_chemical_formula_structural   ReS2
_chemical_formula_sum   'Re8 S16'
_cell_volume   493.89114091
_cell_formula_units_Z   8
loop_
 _symmetry_equiv_pos_site_id
 _symmetry_equiv_pos_as_xyz
  1  'x, y, z'
loop_
 _atom_site_type_symbol
 _atom_site_label
 _atom_site_symmetry_multiplicity
 _atom_site_fract_x
 _atom_site_fract_y
 _atom_site_fract_z
 _atom_site_occupancy
  Re  Re1  1  0.188580  0.067091  0.245045  1.0
  Re  Re2  1  0.313125  0.437971  0.253120  1.0
  Re  Re3  1  0.762310  0.039158  0.248047  1.0
  Re  Re4  1  0.686875  0.562029  0.746880  1.0
  Re  Re5  1  0.811420  0.932909  0.754955  1.0
  Re  Re6  1  0.260607  0.534099  0.749862  1.0
  Re  Re7  1  0.739393  0.465901  0.250138  1.0
  Re  Re8  1  0.237690  0.960842  0.751953  1.0
  S  S9  1  0.910887  0.707934  0.161150  1.0
  S  S10  1  0.596996  0.783084  0.867516  1.0
  S  S11  1  0.370267  0.745147  0.148603  1.0
  S  S12  1  0.138300  0.730619  0.880845  1.0
  S  S13  1  0.360019  0.764308  0.620968  1.0
  S  S14  1  0.131446  0.759866  0.349571  1.0
  S  S15  1  0.629733  0.254853  0.851397  1.0
  S  S16  1  0.868554  0.240134  0.650429  1.0
  S  S17  1  0.098753  0.288092  0.365688  1.0
  S  S18  1  0.590799  0.797147  0.337034  1.0
  S  S19  1  0.089113  0.292066  0.838850  1.0
  S  S20  1  0.409201  0.202853  0.662966  1.0
  S  S21  1  0.861700  0.269381  0.119155  1.0
  S  S22  1  0.639981  0.235692  0.379032  1.0
  S  S23  1  0.403004  0.216916  0.132484  1.0
  S  S24  1  0.901247  0.711908  0.634312  1.0
