# generated using pymatgen
data_BaCoF4
_symmetry_space_group_name_H-M   'P 1'
_cell_length_a   4.22761340
_cell_length_b   6.00806770
_cell_length_c   7.72645574
_cell_angle_alpha   90.00000000
_cell_angle_beta   105.87743032
_cell_angle_gamma   90.00000000
_symmetry_Int_Tables_number   1
_chemical_formula_structural   BaCoF4
_chemical_formula_sum   'Ba2 Co2 F8'
_cell_volume   188.76321732
_cell_formula_units_Z   2
loop_
 _symmetry_equiv_pos_site_id
 _symmetry_equiv_pos_as_xyz
  1  'x, y, z'
loop_
 _atom_site_type_symbol
 _atom_site_label
 _atom_site_symmetry_multiplicity
 _atom_site_fract_x
 _atom_site_fract_y
 _atom_site_fract_z
 _atom_site_occupancy
  Ba  Ba1  1  0.852463  0.955803  0.704927  1.0
  Ba  Ba2  1  0.147537  0.455803  0.295073  1.0
  Co  Co3  1  0.413826  0.502159  0.827653  1.0
  Co  Co4  1  0.586174  0.002159  0.172347  1.0
  F  F5  1  0.924085  0.517079  0.848170  1.0
  F  F6  1  0.075915  0.017079  0.151830  1.0
  F  F7  1  0.469359  0.825328  0.938719  1.0
  F  F8  1  0.530641  0.325328  0.061281  1.0
  F  F9  1  0.699429  0.192650  0.398858  1.0
  F  F10  1  0.300572  0.692650  0.601142  1.0
  F  F11  1  0.662315  0.724581  0.324630  1.0
  F  F12  1  0.337685  0.224581  0.675370  1.0
