# generated using pymatgen
data_ErSi2Rh3
_symmetry_space_group_name_H-M   'P 1'
_cell_length_a   5.50892614
_cell_length_b   5.50892613
_cell_length_c   3.68461848
_cell_angle_alpha   90.00000000
_cell_angle_beta   90.00000000
_cell_angle_gamma   120.00000008
_symmetry_Int_Tables_number   1
_chemical_formula_structural   ErSi2Rh3
_chemical_formula_sum   'Er1 Si2 Rh3'
_cell_volume   96.84050731
_cell_formula_units_Z   1
loop_
 _symmetry_equiv_pos_site_id
 _symmetry_equiv_pos_as_xyz
  1  'x, y, z'
loop_
 _atom_site_type_symbol
 _atom_site_label
 _atom_site_symmetry_multiplicity
 _atom_site_fract_x
 _atom_site_fract_y
 _atom_site_fract_z
 _atom_site_occupancy
  Er  Er1  1  0.000000  0.000000  0.000000  1.0
  Si  Si2  1  0.666667  0.333333  0.000000  1.0
  Si  Si3  1  0.333333  0.666667  0.000000  1.0
  Rh  Rh4  1  0.500000  0.000000  0.500000  1.0
  Rh  Rh5  1  0.000000  0.500000  0.500000  1.0
  Rh  Rh6  1  0.500000  0.500000  0.500000  1.0
