# generated using pymatgen
data_ReO3F
_symmetry_space_group_name_H-M   'P 1'
_cell_length_a   6.32300804
_cell_length_b   6.96133392
_cell_length_c   10.92125402
_cell_angle_alpha   89.75888237
_cell_angle_beta   90.00000000
_cell_angle_gamma   90.00000000
_symmetry_Int_Tables_number   1
_chemical_formula_structural   ReO3F
_chemical_formula_sum   'Re6 O18 F6'
_cell_volume   480.71188915
_cell_formula_units_Z   6
loop_
 _symmetry_equiv_pos_site_id
 _symmetry_equiv_pos_as_xyz
  1  'x, y, z'
loop_
 _atom_site_type_symbol
 _atom_site_label
 _atom_site_symmetry_multiplicity
 _atom_site_fract_x
 _atom_site_fract_y
 _atom_site_fract_z
 _atom_site_occupancy
  Re  Re1  1  0.961060  0.000000  0.750000  1.0
  Re  Re2  1  0.721724  0.334720  0.143189  1.0
  Re  Re3  1  0.038940  0.000000  0.250000  1.0
  Re  Re4  1  0.278276  0.334720  0.643189  1.0
  Re  Re5  1  0.278276  0.665280  0.856811  1.0
  Re  Re6  1  0.721724  0.665280  0.356811  1.0
  O  O7  1  0.794212  0.858604  0.666381  1.0
  O  O8  1  0.237245  0.521096  0.981658  1.0
  O  O9  1  0.205788  0.141396  0.333619  1.0
  O  O10  1  0.042009  0.832737  0.881592  1.0
  O  O11  1  0.512692  0.194120  0.100878  1.0
  O  O12  1  0.794212  0.141396  0.833619  1.0
  O  O13  1  0.434024  0.500000  0.750000  1.0
  O  O14  1  0.957991  0.167263  0.118408  1.0
  O  O15  1  0.762755  0.478904  0.018342  1.0
  O  O16  1  0.512692  0.805880  0.399122  1.0
  O  O17  1  0.042009  0.167263  0.618408  1.0
  O  O18  1  0.487308  0.805880  0.899122  1.0
  O  O19  1  0.565976  0.500000  0.250000  1.0
  O  O20  1  0.237245  0.478904  0.518342  1.0
  O  O21  1  0.205788  0.858604  0.166381  1.0
  O  O22  1  0.957991  0.832737  0.381592  1.0
  O  O23  1  0.762755  0.521096  0.481658  1.0
  O  O24  1  0.487308  0.194120  0.600878  1.0
  F  F25  1  0.051981  0.500000  0.750000  1.0
  F  F26  1  0.948019  0.500000  0.250000  1.0
  F  F27  1  0.232881  0.166313  0.809943  1.0
  F  F28  1  0.767119  0.833687  0.190057  1.0
  F  F29  1  0.232881  0.833687  0.690057  1.0
  F  F30  1  0.767119  0.166313  0.309943  1.0
