# generated using pymatgen
data_Ca2AlFeO5
_symmetry_space_group_name_H-M   'P 1'
_cell_length_a   5.43698850
_cell_length_b   5.68636750
_cell_length_c   8.23890915
_cell_angle_alpha   110.22029591
_cell_angle_beta   109.27433778
_cell_angle_gamma   89.99220194
_symmetry_Int_Tables_number   1
_chemical_formula_structural   Ca2AlFeO5
_chemical_formula_sum   'Ca4 Al2 Fe2 O10'
_cell_volume   223.74945276
_cell_formula_units_Z   2
loop_
 _symmetry_equiv_pos_site_id
 _symmetry_equiv_pos_as_xyz
  1  'x, y, z'
loop_
 _atom_site_type_symbol
 _atom_site_label
 _atom_site_symmetry_multiplicity
 _atom_site_fract_x
 _atom_site_fract_y
 _atom_site_fract_z
 _atom_site_occupancy
  Ca  Ca1  1  0.118242  0.641067  0.219287  1.0
  Ca  Ca2  1  0.399203  0.921771  0.780848  1.0
  Ca  Ca3  1  0.898704  0.358908  0.780679  1.0
  Ca  Ca4  1  0.618296  0.078385  0.219293  1.0
  Al  Al5  1  0.287631  0.327102  0.499435  1.0
  Al  Al6  1  0.787784  0.672963  0.500126  1.0
  Fe  Fe7  1  0.496810  0.499952  0.000096  1.0
  Fe  Fe8  1  0.996927  0.999897  0.000104  1.0
  O  O9  1  0.617169  0.397063  0.500088  1.0
  O  O10  1  0.117006  0.603319  0.500086  1.0
  O  O11  1  0.612795  0.717218  0.293397  1.0
  O  O12  1  0.320165  0.282946  0.706938  1.0
  O  O13  1  0.113679  0.076845  0.293324  1.0
  O  O14  1  0.819557  0.923638  0.706969  1.0
  O  O15  1  0.233553  0.738892  0.971417  1.0
  O  O16  1  0.263689  0.258777  0.028157  1.0
  O  O17  1  0.763517  0.269259  0.028244  1.0
  O  O18  1  0.733940  0.732376  0.972234  1.0
