# generated using pymatgen
data_K2Na4Ge2O7
_symmetry_space_group_name_H-M   'P 1'
_cell_length_a   6.10786651
_cell_length_b   6.06764361
_cell_length_c   29.60626274
_cell_angle_alpha   90.00000000
_cell_angle_beta   90.00000000
_cell_angle_gamma   119.92346895
_symmetry_Int_Tables_number   1
_chemical_formula_structural   K2Na4Ge2O7
_chemical_formula_sum   'K8 Na16 Ge8 O28'
_cell_volume   950.95118382
_cell_formula_units_Z   4
loop_
 _symmetry_equiv_pos_site_id
 _symmetry_equiv_pos_as_xyz
  1  'x, y, z'
loop_
 _atom_site_type_symbol
 _atom_site_label
 _atom_site_symmetry_multiplicity
 _atom_site_fract_x
 _atom_site_fract_y
 _atom_site_fract_z
 _atom_site_occupancy
  K  K1  1  0.699901  0.720259  0.246603  1.0
  K  K2  1  0.300099  0.279741  0.746603  1.0
  K  K3  1  0.963427  0.411324  0.552170  1.0
  K  K4  1  0.036573  0.588676  0.052170  1.0
  K  K5  1  0.352507  0.237934  0.052090  1.0
  K  K6  1  0.647493  0.762066  0.552090  1.0
  K  K7  1  0.438520  0.631386  0.852910  1.0
  K  K8  1  0.561480  0.368613  0.352910  1.0
  Na  Na9  1  0.890234  0.073113  0.345642  1.0
  Na  Na10  1  0.907730  0.699326  0.443454  1.0
  Na  Na11  1  0.292939  0.650946  0.666196  1.0
  Na  Na12  1  0.109766  0.926887  0.845642  1.0
  Na  Na13  1  0.330413  0.991998  0.265896  1.0
  Na  Na14  1  0.092270  0.300674  0.943454  1.0
  Na  Na15  1  0.703637  0.102206  0.441347  1.0
  Na  Na16  1  0.707829  0.485351  0.947601  1.0
  Na  Na17  1  0.296363  0.897794  0.941347  1.0
  Na  Na18  1  0.707061  0.349054  0.166196  1.0
  Na  Na19  1  0.114147  0.953045  0.168042  1.0
  Na  Na20  1  0.669587  0.008002  0.765896  1.0
  Na  Na21  1  0.292171  0.514649  0.447601  1.0
  Na  Na22  1  0.263288  0.524735  0.161747  1.0
  Na  Na23  1  0.885853  0.046955  0.668041  1.0
  Na  Na24  1  0.736712  0.475265  0.661747  1.0
  Ge  Ge25  1  0.768560  0.317372  0.856339  1.0
  Ge  Ge26  1  0.688004  0.925863  0.112283  1.0
  Ge  Ge27  1  0.936368  0.615834  0.755291  1.0
  Ge  Ge28  1  0.299592  0.110093  0.500814  1.0
  Ge  Ge29  1  0.231440  0.682628  0.356339  1.0
  Ge  Ge30  1  0.311996  0.074137  0.612283  1.0
  Ge  Ge31  1  0.700408  0.889907  0.000814  1.0
  Ge  Ge32  1  0.063632  0.384166  0.255291  1.0
  O  O33  1  0.647459  0.761371  0.058440  1.0
  O  O34  1  0.239916  0.827115  0.776184  1.0
  O  O35  1  0.579781  0.038452  0.621961  1.0
  O  O36  1  0.970098  0.223192  0.114504  1.0
  O  O37  1  0.760084  0.172885  0.276184  1.0
  O  O38  1  0.850112  0.092148  0.838395  1.0
  O  O39  1  0.275293  0.533412  0.304718  1.0
  O  O40  1  0.007726  0.082031  0.483776  1.0
  O  O41  1  0.220755  0.248896  0.225613  1.0
  O  O42  1  0.724707  0.466588  0.804718  1.0
  O  O43  1  0.068717  0.624694  0.220283  1.0
  O  O44  1  0.691646  0.704698  0.150959  1.0
  O  O45  1  0.308354  0.295302  0.650959  1.0
  O  O46  1  0.992274  0.917969  0.983776  1.0
  O  O47  1  0.292187  0.816188  0.496311  1.0
  O  O48  1  0.524318  0.796185  0.384796  1.0
  O  O49  1  0.992659  0.441886  0.390803  1.0
  O  O50  1  0.007341  0.558114  0.890803  1.0
  O  O51  1  0.475682  0.203815  0.884796  1.0
  O  O52  1  0.420219  0.961548  0.121961  1.0
  O  O53  1  0.149888  0.907852  0.338395  1.0
  O  O54  1  0.556977  0.359571  0.471334  1.0
  O  O55  1  0.443023  0.640429  0.971334  1.0
  O  O56  1  0.029902  0.776808  0.614504  1.0
  O  O57  1  0.352541  0.238629  0.558440  1.0
  O  O58  1  0.931283  0.375306  0.720283  1.0
  O  O59  1  0.779245  0.751104  0.725613  1.0
  O  O60  1  0.707813  0.183812  0.996311  1.0
