# generated using pymatgen
data_K2CoF4
_symmetry_space_group_name_H-M   'P 1'
_cell_length_a   4.12522579
_cell_length_b   4.12522573
_cell_length_c   7.22412744
_cell_angle_alpha   106.58977570
_cell_angle_beta   106.58977543
_cell_angle_gamma   90.00000014
_symmetry_Int_Tables_number   1
_chemical_formula_structural   K2CoF4
_chemical_formula_sum   'K2 Co1 F4'
_cell_volume   112.46907167
_cell_formula_units_Z   1
loop_
 _symmetry_equiv_pos_site_id
 _symmetry_equiv_pos_as_xyz
  1  'x, y, z'
loop_
 _atom_site_type_symbol
 _atom_site_label
 _atom_site_symmetry_multiplicity
 _atom_site_fract_x
 _atom_site_fract_y
 _atom_site_fract_z
 _atom_site_occupancy
  K  K1  1  0.355244  0.355244  0.710489  1.0
  K  K2  1  0.644756  0.644756  0.289511  1.0
  Co  Co3  1  0.000000  0.000000  0.000000  1.0
  F  F4  1  0.500000  0.000000  0.000000  1.0
  F  F5  1  0.000000  0.500000  0.000000  1.0
  F  F6  1  0.845837  0.845837  0.691672  1.0
  F  F7  1  0.154163  0.154163  0.308328  1.0
