# generated using pymatgen
data_ZnCuAs
_symmetry_space_group_name_H-M   'P 1'
_cell_length_a   4.14954400
_cell_length_b   16.75035523
_cell_length_c   7.22979231
_cell_angle_alpha   30.31759950
_cell_angle_beta   55.10820568
_cell_angle_gamma   60.40947248
_symmetry_Int_Tables_number   1
_chemical_formula_structural   ZnCuAs
_chemical_formula_sum   'Zn4 Cu4 As4'
_cell_volume   208.06596367
_cell_formula_units_Z   4
loop_
 _symmetry_equiv_pos_site_id
 _symmetry_equiv_pos_as_xyz
  1  'x, y, z'
loop_
 _atom_site_type_symbol
 _atom_site_label
 _atom_site_symmetry_multiplicity
 _atom_site_fract_x
 _atom_site_fract_y
 _atom_site_fract_z
 _atom_site_occupancy
  Zn  Zn1  1  0.943676  0.008180  0.951908  1.0
  Zn  Zn2  1  0.943676  0.241820  0.984627  1.0
  Zn  Zn3  1  0.006527  0.508487  0.951303  1.0
  Zn  Zn4  1  0.006527  0.741513  0.985250  1.0
  Cu  Cu5  1  0.430995  0.237578  0.505058  1.0
  Cu  Cu6  1  0.507908  0.508848  0.455505  1.0
  Cu  Cu7  1  0.507908  0.741152  0.490898  1.0
  Cu  Cu8  1  0.430995  0.012422  0.455369  1.0
  As  As9  1  0.193014  0.988389  0.246682  1.0
  As  As10  1  0.193014  0.261611  0.200239  1.0
  As  As11  1  0.251180  0.490800  0.238281  1.0
  As  As12  1  0.251180  0.759200  0.201481  1.0
