# generated using pymatgen
data_As4C3
_symmetry_space_group_name_H-M   'P 1'
_cell_length_a   4.60804849
_cell_length_b   4.60804849
_cell_length_c   4.60866684
_cell_angle_alpha   90.00000000
_cell_angle_beta   90.00000000
_cell_angle_gamma   90.00000000
_symmetry_Int_Tables_number   1
_chemical_formula_structural   As4C3
_chemical_formula_sum   'As4 C3'
_cell_volume   97.86094272
_cell_formula_units_Z   1
loop_
 _symmetry_equiv_pos_site_id
 _symmetry_equiv_pos_as_xyz
  1  'x, y, z'
loop_
 _atom_site_type_symbol
 _atom_site_label
 _atom_site_symmetry_multiplicity
 _atom_site_fract_x
 _atom_site_fract_y
 _atom_site_fract_z
 _atom_site_occupancy
  As  As1  1  0.728163  0.271837  0.771814  1.0
  As  As2  1  0.271837  0.271837  0.228186  1.0
  As  As3  1  0.271837  0.728163  0.771814  1.0
  As  As4  1  0.728163  0.728163  0.228186  1.0
  C  C5  1  0.000000  0.000000  0.000000  1.0
  C  C6  1  0.500000  0.000000  0.500000  1.0
  C  C7  1  0.000000  0.500000  0.500000  1.0
