# generated using pymatgen
data_LiScF4
_symmetry_space_group_name_H-M   'P 1'
_cell_length_a   5.05767112
_cell_length_b   5.05747959
_cell_length_c   6.22069253
_cell_angle_alpha   113.98704311
_cell_angle_beta   113.98714895
_cell_angle_gamma   89.99384745
_symmetry_Int_Tables_number   1
_chemical_formula_structural   LiScF4
_chemical_formula_sum   'Li2 Sc2 F8'
_cell_volume   130.19640626
_cell_formula_units_Z   2
loop_
 _symmetry_equiv_pos_site_id
 _symmetry_equiv_pos_as_xyz
  1  'x, y, z'
loop_
 _atom_site_type_symbol
 _atom_site_label
 _atom_site_symmetry_multiplicity
 _atom_site_fract_x
 _atom_site_fract_y
 _atom_site_fract_z
 _atom_site_occupancy
  Li  Li1  1  0.874992  0.624983  0.749984  1.0
  Li  Li2  1  0.125008  0.375017  0.250016  1.0
  Sc  Sc3  1  0.625010  0.875026  0.250015  1.0
  Sc  Sc4  1  0.374990  0.124974  0.749985  1.0
  F  F5  1  0.616305  0.254898  0.589036  1.0
  F  F6  1  0.972714  0.833985  0.588931  1.0
  F  F7  1  0.754920  0.472728  0.089003  1.0
  F  F8  1  0.245080  0.527272  0.910997  1.0
  F  F9  1  0.665965  0.883709  0.911024  1.0
  F  F10  1  0.027286  0.166015  0.411069  1.0
  F  F11  1  0.334035  0.116291  0.088976  1.0
  F  F12  1  0.383695  0.745102  0.410964  1.0
