# generated using pymatgen
data_Cs2TlVF6
_symmetry_space_group_name_H-M   'P 1'
_cell_length_a   6.65509780
_cell_length_b   6.65509828
_cell_length_c   6.65509773
_cell_angle_alpha   59.99999770
_cell_angle_beta   59.99999534
_cell_angle_gamma   59.99999636
_symmetry_Int_Tables_number   1
_chemical_formula_structural   Cs2TlVF6
_chemical_formula_sum   'Cs2 Tl1 V1 F6'
_cell_volume   208.42428496
_cell_formula_units_Z   1
loop_
 _symmetry_equiv_pos_site_id
 _symmetry_equiv_pos_as_xyz
  1  'x, y, z'
loop_
 _atom_site_type_symbol
 _atom_site_label
 _atom_site_symmetry_multiplicity
 _atom_site_fract_x
 _atom_site_fract_y
 _atom_site_fract_z
 _atom_site_occupancy
  Cs  Cs1  1  0.750000  0.750000  0.750000  1.0
  Cs  Cs2  1  0.250000  0.250000  0.250000  1.0
  Tl  Tl3  1  0.500000  0.500000  0.500000  1.0
  V  V4  1  0.000000  0.000000  0.000000  1.0
  F  F5  1  0.211191  0.788810  0.788810  1.0
  F  F6  1  0.211191  0.788810  0.211191  1.0
  F  F7  1  0.788810  0.211191  0.788810  1.0
  F  F8  1  0.211191  0.211191  0.788810  1.0
  F  F9  1  0.788810  0.211191  0.211191  1.0
  F  F10  1  0.788810  0.788810  0.211191  1.0
