# generated using pymatgen
data_LiGe
_symmetry_space_group_name_H-M   'P 1'
_cell_length_a   5.78246010
_cell_length_b   7.54633861
_cell_length_c   7.54633861
_cell_angle_alpha   81.55912545
_cell_angle_beta   67.47229169
_cell_angle_gamma   67.47229167
_symmetry_Int_Tables_number   1
_chemical_formula_structural   LiGe
_chemical_formula_sum   'Li8 Ge8'
_cell_volume   280.95825939
_cell_formula_units_Z   8
loop_
 _symmetry_equiv_pos_site_id
 _symmetry_equiv_pos_as_xyz
  1  'x, y, z'
loop_
 _atom_site_type_symbol
 _atom_site_label
 _atom_site_symmetry_multiplicity
 _atom_site_fract_x
 _atom_site_fract_y
 _atom_site_fract_z
 _atom_site_occupancy
  Li  Li1  1  0.461853  0.193524  0.533640  1.0
  Li  Li2  1  0.995493  0.966360  0.193524  1.0
  Li  Li3  1  0.155377  0.533640  0.306476  1.0
  Li  Li4  1  0.189017  0.306476  0.966360  1.0
  Li  Li5  1  0.538147  0.806476  0.466360  1.0
  Li  Li6  1  0.004507  0.033640  0.806476  1.0
  Li  Li7  1  0.844623  0.466360  0.693524  1.0
  Li  Li8  1  0.810983  0.693524  0.033640  1.0
  Ge  Ge9  1  0.057953  0.159096  0.445762  1.0
  Ge  Ge10  1  0.503715  0.054238  0.159096  1.0
  Ge  Ge11  1  0.717050  0.445762  0.340904  1.0
  Ge  Ge12  1  0.662812  0.340904  0.054238  1.0
  Ge  Ge13  1  0.942047  0.840904  0.554238  1.0
  Ge  Ge14  1  0.496285  0.945762  0.840904  1.0
  Ge  Ge15  1  0.282950  0.554238  0.659096  1.0
  Ge  Ge16  1  0.337188  0.659096  0.945762  1.0
