# generated using pymatgen
data_S
_symmetry_space_group_name_H-M   'P 1'
_cell_length_a   8.20296867
_cell_length_b   10.50451021
_cell_length_c   10.48392736
_cell_angle_alpha   98.58594468
_cell_angle_beta   90.00000000
_cell_angle_gamma   90.00000000
_symmetry_Int_Tables_number   1
_chemical_formula_structural   S
_chemical_formula_sum   S28
_cell_volume   893.25665755
_cell_formula_units_Z   28
loop_
 _symmetry_equiv_pos_site_id
 _symmetry_equiv_pos_as_xyz
  1  'x, y, z'
loop_
 _atom_site_type_symbol
 _atom_site_label
 _atom_site_symmetry_multiplicity
 _atom_site_fract_x
 _atom_site_fract_y
 _atom_site_fract_z
 _atom_site_occupancy
  S  S1  1  0.075536  0.107347  0.316236  1.0
  S  S2  1  0.615444  0.660747  0.452342  1.0
  S  S3  1  0.786541  0.082160  0.077351  1.0
  S  S4  1  0.392508  0.753209  0.219286  1.0
  S  S5  1  0.393385  0.866874  0.776594  1.0
  S  S6  1  0.606615  0.133126  0.223406  1.0
  S  S7  1  0.607492  0.246791  0.780714  1.0
  S  S8  1  0.115444  0.839253  0.547658  1.0
  S  S9  1  0.713459  0.582160  0.077351  1.0
  S  S10  1  0.424464  0.607347  0.316236  1.0
  S  S11  1  0.106615  0.366874  0.776594  1.0
  S  S12  1  0.884556  0.160747  0.452342  1.0
  S  S13  1  0.892508  0.746791  0.780714  1.0
  S  S14  1  0.575536  0.392653  0.683764  1.0
  S  S15  1  0.924464  0.892653  0.683764  1.0
  S  S16  1  0.305947  0.950461  0.625838  1.0
  S  S17  1  0.417598  0.261894  0.934830  1.0
  S  S18  1  0.286541  0.417840  0.922650  1.0
  S  S19  1  0.582402  0.738106  0.065170  1.0
  S  S20  1  0.213459  0.917840  0.922650  1.0
  S  S21  1  0.805947  0.549539  0.374162  1.0
  S  S22  1  0.893385  0.633126  0.223406  1.0
  S  S23  1  0.107492  0.253209  0.219286  1.0
  S  S24  1  0.694053  0.049539  0.374162  1.0
  S  S25  1  0.082402  0.761894  0.934830  1.0
  S  S26  1  0.917598  0.238106  0.065170  1.0
  S  S27  1  0.194053  0.450461  0.625838  1.0
  S  S28  1  0.384556  0.339253  0.547658  1.0
