# generated using pymatgen
data_Dy2B4C
_symmetry_space_group_name_H-M   'P 1'
_cell_length_a   3.27967041
_cell_length_b   5.26314395
_cell_length_c   5.26314383
_cell_angle_alpha   77.13538892
_cell_angle_beta   71.84615081
_cell_angle_gamma   71.84615619
_symmetry_Int_Tables_number   1
_chemical_formula_structural   Dy2B4C
_chemical_formula_sum   'Dy2 B4 C1'
_cell_volume   81.23272412
_cell_formula_units_Z   1
loop_
 _symmetry_equiv_pos_site_id
 _symmetry_equiv_pos_as_xyz
  1  'x, y, z'
loop_
 _atom_site_type_symbol
 _atom_site_label
 _atom_site_symmetry_multiplicity
 _atom_site_fract_x
 _atom_site_fract_y
 _atom_site_fract_z
 _atom_site_occupancy
  Dy  Dy1  1  0.765647  0.234353  0.234353  1.0
  Dy  Dy2  1  0.234353  0.765647  0.765647  1.0
  B  B3  1  0.000000  0.365120  0.634880  1.0
  B  B4  1  0.500000  0.772549  0.227451  1.0
  B  B5  1  0.000000  0.634880  0.365120  1.0
  B  B6  1  0.500000  0.227451  0.772549  1.0
  C  C7  1  0.500000  0.000000  0.000000  1.0
