# generated using pymatgen
data_LiSi
_symmetry_space_group_name_H-M   'P 1'
_cell_length_a   5.74070910
_cell_length_b   7.19373799
_cell_length_c   7.19451025
_cell_angle_alpha   80.83623291
_cell_angle_beta   66.45664749
_cell_angle_gamma   66.45760130
_symmetry_Int_Tables_number   1
_chemical_formula_structural   LiSi
_chemical_formula_sum   'Li8 Si8'
_cell_volume   249.70890387
_cell_formula_units_Z   8
loop_
 _symmetry_equiv_pos_site_id
 _symmetry_equiv_pos_as_xyz
  1  'x, y, z'
loop_
 _atom_site_type_symbol
 _atom_site_label
 _atom_site_symmetry_multiplicity
 _atom_site_fract_x
 _atom_site_fract_y
 _atom_site_fract_z
 _atom_site_occupancy
  Li  Li1  1  0.135317  0.804559  0.033502  1.0
  Li  Li2  1  0.168797  0.466552  0.804552  1.0
  Li  Li3  1  0.439832  0.033502  0.695454  1.0
  Li  Li4  1  0.973415  0.695439  0.466513  1.0
  Li  Li5  1  0.864683  0.195441  0.966498  1.0
  Li  Li6  1  0.831203  0.533448  0.195448  1.0
  Li  Li7  1  0.560168  0.966498  0.304546  1.0
  Li  Li8  1  0.026585  0.304561  0.533487  1.0
  Si  Si9  1  0.705322  0.841985  0.936654  1.0
  Si  Si10  1  0.641942  0.563492  0.841894  1.0
  Si  Si11  1  0.047293  0.936540  0.658005  1.0
  Si  Si12  1  0.483822  0.658067  0.563516  1.0
  Si  Si13  1  0.294678  0.158015  0.063346  1.0
  Si  Si14  1  0.358058  0.436508  0.158106  1.0
  Si  Si15  1  0.952707  0.063460  0.341995  1.0
  Si  Si16  1  0.516178  0.341933  0.436484  1.0
