# generated using pymatgen
data_NbAgO3
_symmetry_space_group_name_H-M   'P 1'
_cell_length_a   6.84232445
_cell_length_b   6.84232538
_cell_length_c   6.23120178
_cell_angle_alpha   90.00000000
_cell_angle_beta   90.00000000
_cell_angle_gamma   110.17785585
_symmetry_Int_Tables_number   1
_chemical_formula_structural   NbAgO3
_chemical_formula_sum   'Nb4 Ag4 O12'
_cell_volume   273.82428951
_cell_formula_units_Z   4
loop_
 _symmetry_equiv_pos_site_id
 _symmetry_equiv_pos_as_xyz
  1  'x, y, z'
loop_
 _atom_site_type_symbol
 _atom_site_label
 _atom_site_symmetry_multiplicity
 _atom_site_fract_x
 _atom_site_fract_y
 _atom_site_fract_z
 _atom_site_occupancy
  Nb  Nb1  1  0.500000  0.000000  0.500000  1.0
  Nb  Nb2  1  0.500000  0.000000  0.000000  1.0
  Nb  Nb3  1  0.000000  0.500000  0.500000  1.0
  Nb  Nb4  1  0.000000  0.500000  0.000000  1.0
  Ag  Ag5  1  0.498876  0.501124  0.750000  1.0
  Ag  Ag6  1  0.998960  0.001040  0.250000  1.0
  Ag  Ag7  1  0.501124  0.498876  0.250000  1.0
  Ag  Ag8  1  0.001040  0.998960  0.750000  1.0
  O  O9  1  0.737131  0.262869  0.497512  1.0
  O  O10  1  0.630171  0.891783  0.750000  1.0
  O  O11  1  0.262869  0.737131  0.502488  1.0
  O  O12  1  0.737131  0.262869  0.002488  1.0
  O  O13  1  0.891783  0.630171  0.250000  1.0
  O  O14  1  0.111311  0.372400  0.250000  1.0
  O  O15  1  0.627600  0.888689  0.250000  1.0
  O  O16  1  0.262869  0.737131  0.997512  1.0
  O  O17  1  0.888689  0.627600  0.750000  1.0
  O  O18  1  0.369829  0.108217  0.250000  1.0
  O  O19  1  0.372400  0.111311  0.750000  1.0
  O  O20  1  0.108217  0.369829  0.750000  1.0
