# generated using pymatgen
data_YbTaO4
_symmetry_space_group_name_H-M   'P 1'
_cell_length_a   5.10378957
_cell_length_b   5.47014465
_cell_length_c   6.53744903
_cell_angle_alpha   112.88222035
_cell_angle_beta   111.01435236
_cell_angle_gamma   94.34397072
_symmetry_Int_Tables_number   1
_chemical_formula_structural   YbTaO4
_chemical_formula_sum   'Yb2 Ta2 O8'
_cell_volume   151.97632881
_cell_formula_units_Z   2
loop_
 _symmetry_equiv_pos_site_id
 _symmetry_equiv_pos_as_xyz
  1  'x, y, z'
loop_
 _atom_site_type_symbol
 _atom_site_label
 _atom_site_symmetry_multiplicity
 _atom_site_fract_x
 _atom_site_fract_y
 _atom_site_fract_z
 _atom_site_occupancy
  Yb  Yb1  1  0.619906  0.369891  0.239821  1.0
  Yb  Yb2  1  0.380094  0.630109  0.760179  1.0
  Ta  Ta3  1  0.147332  0.897287  0.294559  1.0
  Ta  Ta4  1  0.852668  0.102713  0.705441  1.0
  O  O5  1  0.997375  0.794183  0.556536  1.0
  O  O6  1  0.798385  0.624117  0.073739  1.0
  O  O7  1  0.002625  0.205817  0.443464  1.0
  O  O8  1  0.275405  0.949595  0.073717  1.0
  O  O9  1  0.724595  0.050405  0.926283  1.0
  O  O10  1  0.440866  0.737641  0.443473  1.0
  O  O11  1  0.201615  0.375883  0.926261  1.0
  O  O12  1  0.559134  0.262359  0.556527  1.0
