# generated using pymatgen
data_Li4UO5
_symmetry_space_group_name_H-M   'P 1'
_cell_length_a   4.46163014
_cell_length_b   5.29196264
_cell_length_c   5.29196264
_cell_angle_alpha   79.76403301
_cell_angle_beta   65.06765649
_cell_angle_gamma   65.06765643
_symmetry_Int_Tables_number   1
_chemical_formula_structural   Li4UO5
_chemical_formula_sum   'Li4 U1 O5'
_cell_volume   102.74390328
_cell_formula_units_Z   1
loop_
 _symmetry_equiv_pos_site_id
 _symmetry_equiv_pos_as_xyz
  1  'x, y, z'
loop_
 _atom_site_type_symbol
 _atom_site_label
 _atom_site_symmetry_multiplicity
 _atom_site_fract_x
 _atom_site_fract_y
 _atom_site_fract_z
 _atom_site_occupancy
  Li  Li1  1  0.813543  0.770175  0.602739  1.0
  Li  Li2  1  0.186457  0.229825  0.397261  1.0
  Li  Li3  1  0.416282  0.397261  0.770175  1.0
  Li  Li4  1  0.583718  0.602739  0.229825  1.0
  U  U5  1  0.000000  0.000000  0.000000  1.0
  O  O6  1  0.913078  0.373474  0.800371  1.0
  O  O7  1  0.713449  0.199629  0.373474  1.0
  O  O8  1  0.500000  0.000000  0.000000  1.0
  O  O9  1  0.086922  0.626526  0.199629  1.0
  O  O10  1  0.286551  0.800371  0.626526  1.0
