# generated using pymatgen
data_Ba2LaTaO6
_symmetry_space_group_name_H-M   'P 1'
_cell_length_a   6.14933210
_cell_length_b   6.20640256
_cell_length_c   8.69010151
_cell_angle_alpha   90.51944502
_cell_angle_beta   90.00000000
_cell_angle_gamma   90.00000000
_symmetry_Int_Tables_number   1
_chemical_formula_structural   Ba2LaTaO6
_chemical_formula_sum   'Ba4 La2 Ta2 O12'
_cell_volume   331.64609716
_cell_formula_units_Z   2
loop_
 _symmetry_equiv_pos_site_id
 _symmetry_equiv_pos_as_xyz
  1  'x, y, z'
loop_
 _atom_site_type_symbol
 _atom_site_label
 _atom_site_symmetry_multiplicity
 _atom_site_fract_x
 _atom_site_fract_y
 _atom_site_fract_z
 _atom_site_occupancy
  Ba  Ba1  1  0.509434  0.005997  0.747994  1.0
  Ba  Ba2  1  0.990566  0.505997  0.247994  1.0
  Ba  Ba3  1  0.009434  0.494003  0.752006  1.0
  Ba  Ba4  1  0.490566  0.994003  0.252006  1.0
  La  La5  1  0.000000  0.000000  0.000000  1.0
  La  La6  1  0.500000  0.500000  0.500000  1.0
  Ta  Ta7  1  0.500000  0.500000  0.000000  1.0
  Ta  Ta8  1  0.000000  0.000000  0.500000  1.0
  O  O9  1  0.994352  0.931036  0.727139  1.0
  O  O10  1  0.743924  0.286806  0.962254  1.0
  O  O11  1  0.281740  0.261460  0.963204  1.0
  O  O12  1  0.243924  0.213194  0.537746  1.0
  O  O13  1  0.781740  0.238540  0.536796  1.0
  O  O14  1  0.218260  0.761460  0.463204  1.0
  O  O15  1  0.005648  0.068964  0.272861  1.0
  O  O16  1  0.256076  0.713194  0.037746  1.0
  O  O17  1  0.756076  0.786806  0.462254  1.0
  O  O18  1  0.505648  0.431036  0.227139  1.0
  O  O19  1  0.718260  0.738540  0.036796  1.0
  O  O20  1  0.494352  0.568964  0.772861  1.0
