# generated using pymatgen
data_VO2
_symmetry_space_group_name_H-M   'P 1'
_cell_length_a   3.74666270
_cell_length_b   6.49009609
_cell_length_c   6.47306443
_cell_angle_alpha   106.15598436
_cell_angle_beta   106.80817464
_cell_angle_gamma   90.00308153
_symmetry_Int_Tables_number   1
_chemical_formula_structural   VO2
_chemical_formula_sum   'V4 O8'
_cell_volume   144.16943530
_cell_formula_units_Z   4
loop_
 _symmetry_equiv_pos_site_id
 _symmetry_equiv_pos_as_xyz
  1  'x, y, z'
loop_
 _atom_site_type_symbol
 _atom_site_label
 _atom_site_symmetry_multiplicity
 _atom_site_fract_x
 _atom_site_fract_y
 _atom_site_fract_z
 _atom_site_occupancy
  V  V1  1  0.696235  0.275623  0.392416  1.0
  V  V2  1  0.303765  0.724377  0.607584  1.0
  V  V3  1  0.603807  0.685287  0.202451  1.0
  V  V4  1  0.396193  0.314713  0.797549  1.0
  O  O5  1  0.638709  0.004190  0.278309  1.0
  O  O6  1  0.361291  0.995810  0.721691  1.0
  O  O7  1  0.762149  0.649006  0.524307  1.0
  O  O8  1  0.237851  0.350994  0.475693  1.0
  O  O9  1  0.557370  0.368407  0.114986  1.0
  O  O10  1  0.442630  0.631593  0.885014  1.0
  O  O11  1  0.865572  0.299182  0.730682  1.0
  O  O12  1  0.134428  0.700818  0.269318  1.0
