# generated using pymatgen
data_Ba2CoF6
_symmetry_space_group_name_H-M   'P 1'
_cell_length_a   4.11532495
_cell_length_b   4.11532426
_cell_length_c   8.99130724
_cell_angle_alpha   103.22938172
_cell_angle_beta   103.22937876
_cell_angle_gamma   90.00000042
_symmetry_Int_Tables_number   1
_chemical_formula_structural   Ba2CoF6
_chemical_formula_sum   'Ba2 Co1 F6'
_cell_volume   144.08025846
_cell_formula_units_Z   1
loop_
 _symmetry_equiv_pos_site_id
 _symmetry_equiv_pos_as_xyz
  1  'x, y, z'
loop_
 _atom_site_type_symbol
 _atom_site_label
 _atom_site_symmetry_multiplicity
 _atom_site_fract_x
 _atom_site_fract_y
 _atom_site_fract_z
 _atom_site_occupancy
  Ba  Ba1  1  0.153731  0.153731  0.307464  1.0
  Ba  Ba2  1  0.846269  0.846269  0.692536  1.0
  Co  Co3  1  0.500000  0.500000  0.000000  1.0
  F  F4  1  0.620148  0.620148  0.240296  1.0
  F  F5  1  0.750000  0.250000  0.500000  1.0
  F  F6  1  0.000000  0.500000  0.000000  1.0
  F  F7  1  0.500000  0.000000  0.000000  1.0
  F  F8  1  0.250000  0.750000  0.500000  1.0
  F  F9  1  0.379852  0.379852  0.759704  1.0
