# generated using pymatgen
data_Sr2Fe2Se2OF2
_symmetry_space_group_name_H-M   'P 1'
_cell_length_a   4.16460444
_cell_length_b   4.16457996
_cell_length_c   9.90532532
_cell_angle_alpha   102.13126321
_cell_angle_beta   102.13526852
_cell_angle_gamma   89.99999365
_symmetry_Int_Tables_number   1
_chemical_formula_structural   Sr2Fe2Se2OF2
_chemical_formula_sum   'Sr2 Fe2 Se2 O1 F2'
_cell_volume   164.03111159
_cell_formula_units_Z   1
loop_
 _symmetry_equiv_pos_site_id
 _symmetry_equiv_pos_as_xyz
  1  'x, y, z'
loop_
 _atom_site_type_symbol
 _atom_site_label
 _atom_site_symmetry_multiplicity
 _atom_site_fract_x
 _atom_site_fract_y
 _atom_site_fract_z
 _atom_site_occupancy
  Sr  Sr1  1  0.675537  0.675484  0.351075  1.0
  Sr  Sr2  1  0.324463  0.324516  0.648924  1.0
  Fe  Fe3  1  0.500001  0.000002  0.000003  1.0
  Fe  Fe4  1  0.999999  0.500000  0.999998  1.0
  Se  Se5  1  0.902435  0.902465  0.804869  1.0
  Se  Se6  1  0.097565  0.097535  0.195131  1.0
  O  O7  1  0.500000  0.500000  0.000000  1.0
  F  F8  1  0.750001  0.249992  0.500002  1.0
  F  F9  1  0.249999  0.750008  0.499998  1.0
