# generated using pymatgen
data_VS
_symmetry_space_group_name_H-M   'P 1'
_cell_length_a   3.16980216
_cell_length_b   3.16980227
_cell_length_c   6.12712684
_cell_angle_alpha   90.00000000
_cell_angle_beta   90.00000000
_cell_angle_gamma   119.99999888
_symmetry_Int_Tables_number   1
_chemical_formula_structural   VS
_chemical_formula_sum   'V2 S2'
_cell_volume   53.31529746
_cell_formula_units_Z   2
loop_
 _symmetry_equiv_pos_site_id
 _symmetry_equiv_pos_as_xyz
  1  'x, y, z'
loop_
 _atom_site_type_symbol
 _atom_site_label
 _atom_site_symmetry_multiplicity
 _atom_site_fract_x
 _atom_site_fract_y
 _atom_site_fract_z
 _atom_site_occupancy
  V  V1  1  0.000000  0.000000  0.000000  1.0
  V  V2  1  0.000000  0.000000  0.500000  1.0
  S  S3  1  0.333333  0.666667  0.250000  1.0
  S  S4  1  0.666667  0.333333  0.750000  1.0
