# generated using pymatgen
data_SnS
_symmetry_space_group_name_H-M   'P 1'
_cell_length_a   4.11187918
_cell_length_b   4.10789579
_cell_length_c   6.20842533
_cell_angle_alpha   90.00000000
_cell_angle_beta   109.33878211
_cell_angle_gamma   90.00000000
_symmetry_Int_Tables_number   1
_chemical_formula_structural   SnS
_chemical_formula_sum   'Sn2 S2'
_cell_volume   98.95063370
_cell_formula_units_Z   2
loop_
 _symmetry_equiv_pos_site_id
 _symmetry_equiv_pos_as_xyz
  1  'x, y, z'
loop_
 _atom_site_type_symbol
 _atom_site_label
 _atom_site_symmetry_multiplicity
 _atom_site_fract_x
 _atom_site_fract_y
 _atom_site_fract_z
 _atom_site_occupancy
  Sn  Sn1  1  0.873611  0.250000  0.747221  1.0
  Sn  Sn2  1  0.126389  0.750000  0.252779  1.0
  S  S3  1  0.651397  0.250000  0.302793  1.0
  S  S4  1  0.348603  0.750000  0.697207  1.0
