# generated using pymatgen
data_CsAuO2
_symmetry_space_group_name_H-M   'P 1'
_cell_length_a   5.34601058
_cell_length_b   6.16146000
_cell_length_c   6.85839000
_cell_angle_alpha   90.00000000
_cell_angle_beta   67.06152819
_cell_angle_gamma   90.00000000
_symmetry_Int_Tables_number   1
_chemical_formula_structural   CsAuO2
_chemical_formula_sum   'Cs2 Au2 O4'
_cell_volume   208.04600312
_cell_formula_units_Z   2
loop_
 _symmetry_equiv_pos_site_id
 _symmetry_equiv_pos_as_xyz
  1  'x, y, z'
loop_
 _atom_site_type_symbol
 _atom_site_label
 _atom_site_symmetry_multiplicity
 _atom_site_fract_x
 _atom_site_fract_y
 _atom_site_fract_z
 _atom_site_occupancy
  Cs  Cs1  1  0.308570  0.750000  0.382860  1.0
  Cs  Cs2  1  0.691430  0.250000  0.617140  1.0
  Au  Au3  1  0.997880  0.250000  0.004240  1.0
  Au  Au4  1  0.002120  0.750000  0.995760  1.0
  O  O5  1  0.106180  0.003990  0.787640  1.0
  O  O6  1  0.893820  0.503990  0.212360  1.0
  O  O7  1  0.106180  0.496010  0.787640  1.0
  O  O8  1  0.893820  0.996010  0.212360  1.0
