# generated using pymatgen
data_Al5Mo
_symmetry_space_group_name_H-M   'P 1'
_cell_length_a   4.91853289
_cell_length_b   4.91853308
_cell_length_c   8.87569832
_cell_angle_alpha   90.00000000
_cell_angle_beta   90.00000000
_cell_angle_gamma   119.99999878
_symmetry_Int_Tables_number   1
_chemical_formula_structural   Al5Mo
_chemical_formula_sum   'Al10 Mo2'
_cell_volume   185.95349523
_cell_formula_units_Z   2
loop_
 _symmetry_equiv_pos_site_id
 _symmetry_equiv_pos_as_xyz
  1  'x, y, z'
loop_
 _atom_site_type_symbol
 _atom_site_label
 _atom_site_symmetry_multiplicity
 _atom_site_fract_x
 _atom_site_fract_y
 _atom_site_fract_z
 _atom_site_occupancy
  Al  Al1  1  0.661558  0.000000  0.250000  1.0
  Al  Al2  1  0.000000  0.661558  0.250000  1.0
  Al  Al3  1  0.661558  0.661558  0.750000  1.0
  Al  Al4  1  0.000000  0.000000  0.000000  1.0
  Al  Al5  1  0.338442  0.000000  0.750000  1.0
  Al  Al6  1  0.666667  0.333333  0.500000  1.0
  Al  Al7  1  0.338442  0.338442  0.250000  1.0
  Al  Al8  1  0.000000  0.000000  0.500000  1.0
  Al  Al9  1  0.333333  0.666667  0.000000  1.0
  Al  Al10  1  0.000000  0.338442  0.750000  1.0
  Mo  Mo11  1  0.333333  0.666667  0.500000  1.0
  Mo  Mo12  1  0.666667  0.333333  0.000000  1.0
