# generated using pymatgen
data_KMnF3
_symmetry_space_group_name_H-M   'P 1'
_cell_length_a   5.99026887
_cell_length_b   5.99026926
_cell_length_c   6.02760168
_cell_angle_alpha   119.79532532
_cell_angle_beta   119.79532743
_cell_angle_gamma   89.99999827
_symmetry_Int_Tables_number   1
_chemical_formula_structural   KMnF3
_chemical_formula_sum   'K2 Mn2 F6'
_cell_volume   153.88182536
_cell_formula_units_Z   2
loop_
 _symmetry_equiv_pos_site_id
 _symmetry_equiv_pos_as_xyz
  1  'x, y, z'
loop_
 _atom_site_type_symbol
 _atom_site_label
 _atom_site_symmetry_multiplicity
 _atom_site_fract_x
 _atom_site_fract_y
 _atom_site_fract_z
 _atom_site_occupancy
  K  K1  1  0.750000  0.250000  0.500000  1.0
  K  K2  1  0.250000  0.750000  0.500000  1.0
  Mn  Mn3  1  0.500000  0.500000  0.000000  1.0
  Mn  Mn4  1  0.000000  0.000000  0.000000  1.0
  F  F5  1  0.750000  0.750000  0.500000  1.0
  F  F6  1  0.250000  0.250000  0.500000  1.0
  F  F7  1  0.785748  0.285748  0.000000  1.0
  F  F8  1  0.714252  0.785748  0.000000  1.0
  F  F9  1  0.214252  0.714252  0.000000  1.0
  F  F10  1  0.285748  0.214252  0.000000  1.0
