# generated using pymatgen
data_CsVO3
_symmetry_space_group_name_H-M   'P 1'
_cell_length_a   5.61229087
_cell_length_b   5.90076286
_cell_length_c   12.54641328
_cell_angle_alpha   90.00000000
_cell_angle_beta   90.00000000
_cell_angle_gamma   90.00000000
_symmetry_Int_Tables_number   1
_chemical_formula_structural   CsVO3
_chemical_formula_sum   'Cs4 V4 O12'
_cell_volume   415.49702826
_cell_formula_units_Z   4
loop_
 _symmetry_equiv_pos_site_id
 _symmetry_equiv_pos_as_xyz
  1  'x, y, z'
loop_
 _atom_site_type_symbol
 _atom_site_label
 _atom_site_symmetry_multiplicity
 _atom_site_fract_x
 _atom_site_fract_y
 _atom_site_fract_z
 _atom_site_occupancy
  Cs  Cs1  1  0.085835  0.750000  0.598528  1.0
  Cs  Cs2  1  0.085835  0.250000  0.901472  1.0
  Cs  Cs3  1  0.914165  0.250000  0.401472  1.0
  Cs  Cs4  1  0.914165  0.750000  0.098528  1.0
  V  V5  1  0.548884  0.750000  0.827163  1.0
  V  V6  1  0.548884  0.250000  0.672837  1.0
  V  V7  1  0.451116  0.250000  0.172837  1.0
  V  V8  1  0.451116  0.750000  0.327163  1.0
  O  O9  1  0.844997  0.750000  0.846391  1.0
  O  O10  1  0.844997  0.250000  0.653609  1.0
  O  O11  1  0.155003  0.250000  0.153609  1.0
  O  O12  1  0.155003  0.750000  0.346391  1.0
  O  O13  1  0.408118  0.750000  0.944317  1.0
  O  O14  1  0.408118  0.250000  0.555683  1.0
  O  O15  1  0.591881  0.250000  0.055683  1.0
  O  O16  1  0.591881  0.750000  0.444317  1.0
  O  O17  1  0.457303  0.000000  0.750000  1.0
  O  O18  1  0.542697  0.500000  0.250000  1.0
  O  O19  1  0.542697  0.000000  0.250000  1.0
  O  O20  1  0.457303  0.500000  0.750000  1.0
