# generated using pymatgen
data_Lu3Mn3Ga2Si
_symmetry_space_group_name_H-M   'P 1'
_cell_length_a   6.95353221
_cell_length_b   6.95368799
_cell_length_c   3.85348551
_cell_angle_alpha   90.00000000
_cell_angle_beta   90.00000000
_cell_angle_gamma   120.00559733
_symmetry_Int_Tables_number   1
_chemical_formula_structural   Lu3Mn3Ga2Si
_chemical_formula_sum   'Lu3 Mn3 Ga2 Si1'
_cell_volume   161.35429673
_cell_formula_units_Z   1
loop_
 _symmetry_equiv_pos_site_id
 _symmetry_equiv_pos_as_xyz
  1  'x, y, z'
loop_
 _atom_site_type_symbol
 _atom_site_label
 _atom_site_symmetry_multiplicity
 _atom_site_fract_x
 _atom_site_fract_y
 _atom_site_fract_z
 _atom_site_occupancy
  Lu  Lu1  1  0.407966  0.408185  0.500000  1.0
  Lu  Lu2  1  0.000156  0.591974  0.500000  1.0
  Lu  Lu3  1  0.591834  0.999858  0.500000  1.0
  Mn  Mn4  1  0.999990  0.221505  0.000000  1.0
  Mn  Mn5  1  0.221738  0.000110  0.000000  1.0
  Mn  Mn6  1  0.778358  0.778434  0.000000  1.0
  Ga  Ga7  1  0.666675  0.333289  0.000000  1.0
  Ga  Ga8  1  0.333356  0.666664  0.000000  1.0
  Si  Si9  1  0.999928  0.999982  0.500000  1.0
