# generated using pymatgen
data_OsO4
_symmetry_space_group_name_H-M   'P 1'
_cell_length_a   4.75058393
_cell_length_b   5.44098980
_cell_length_c   8.46312721
_cell_angle_alpha   76.84055301
_cell_angle_beta   73.45062037
_cell_angle_gamma   64.08179658
_symmetry_Int_Tables_number   1
_chemical_formula_structural   OsO4
_chemical_formula_sum   'Os2 O8'
_cell_volume   187.24591042
_cell_formula_units_Z   2
loop_
 _symmetry_equiv_pos_site_id
 _symmetry_equiv_pos_as_xyz
  1  'x, y, z'
loop_
 _atom_site_type_symbol
 _atom_site_label
 _atom_site_symmetry_multiplicity
 _atom_site_fract_x
 _atom_site_fract_y
 _atom_site_fract_z
 _atom_site_occupancy
  Os  Os1  1  0.744214  0.750050  0.249908  1.0
  Os  Os2  1  0.255786  0.249950  0.750092  1.0
  O  O3  1  0.839945  0.033777  0.195084  1.0
  O  O4  1  0.068786  0.466193  0.304180  1.0
  O  O5  1  0.160055  0.966223  0.804916  1.0
  O  O6  1  0.931214  0.533807  0.695820  1.0
  O  O7  1  0.422463  0.806670  0.416217  1.0
  O  O8  1  0.646142  0.693672  0.084295  1.0
  O  O9  1  0.577537  0.193330  0.583783  1.0
  O  O10  1  0.353858  0.306328  0.915705  1.0
