# generated using pymatgen
data_Li15Si4
_symmetry_space_group_name_H-M   'P 1'
_cell_length_a   9.15046601
_cell_length_b   9.15046651
_cell_length_c   9.15046593
_cell_angle_alpha   109.47121935
_cell_angle_beta   109.47122045
_cell_angle_gamma   109.47121971
_symmetry_Int_Tables_number   1
_chemical_formula_structural   Li15Si4
_chemical_formula_sum   'Li30 Si8'
_cell_volume   589.80408810
_cell_formula_units_Z   2
loop_
 _symmetry_equiv_pos_site_id
 _symmetry_equiv_pos_as_xyz
  1  'x, y, z'
loop_
 _atom_site_type_symbol
 _atom_site_label
 _atom_site_symmetry_multiplicity
 _atom_site_fract_x
 _atom_site_fract_y
 _atom_site_fract_z
 _atom_site_occupancy
  Li  Li1  1  0.723016  0.340370  0.809529  1.0
  Li  Li2  1  0.875000  0.125000  0.750000  1.0
  Li  Li3  1  0.809529  0.723016  0.340370  1.0
  Li  Li4  1  0.586514  0.617355  0.776984  1.0
  Li  Li5  1  0.690471  0.030841  0.913486  1.0
  Li  Li6  1  0.117355  0.086514  0.276984  1.0
  Li  Li7  1  0.030841  0.913486  0.690471  1.0
  Li  Li8  1  0.086514  0.276984  0.117355  1.0
  Li  Li9  1  0.530841  0.190471  0.413486  1.0
  Li  Li10  1  0.617355  0.776984  0.586514  1.0
  Li  Li11  1  0.913486  0.690471  0.030841  1.0
  Li  Li12  1  0.413486  0.530841  0.190471  1.0
  Li  Li13  1  0.250000  0.625000  0.375000  1.0
  Li  Li14  1  0.882645  0.469159  0.159630  1.0
  Li  Li15  1  0.750000  0.875000  0.125000  1.0
  Li  Li16  1  0.659630  0.969159  0.382645  1.0
  Li  Li17  1  0.190471  0.413486  0.530841  1.0
  Li  Li18  1  0.276984  0.117355  0.086514  1.0
  Li  Li19  1  0.223016  0.309529  0.840370  1.0
  Li  Li20  1  0.125000  0.750000  0.875000  1.0
  Li  Li21  1  0.159630  0.882645  0.469159  1.0
  Li  Li22  1  0.776984  0.586514  0.617355  1.0
  Li  Li23  1  0.969159  0.382645  0.659630  1.0
  Li  Li24  1  0.340370  0.809529  0.723016  1.0
  Li  Li25  1  0.382645  0.659630  0.969159  1.0
  Li  Li26  1  0.469159  0.159630  0.882645  1.0
  Li  Li27  1  0.840370  0.223016  0.309529  1.0
  Li  Li28  1  0.625000  0.375000  0.250000  1.0
  Li  Li29  1  0.309529  0.840370  0.223016  1.0
  Li  Li30  1  0.375000  0.250000  0.625000  1.0
  Si  Si31  1  0.584856  0.500000  0.000000  1.0
  Si  Si32  1  0.000000  0.584856  0.500000  1.0
  Si  Si33  1  0.084856  0.500000  0.000000  1.0
  Si  Si34  1  0.500000  0.000000  0.084856  1.0
  Si  Si35  1  0.500000  0.000000  0.584856  1.0
  Si  Si36  1  0.000000  0.084856  0.500000  1.0
  Si  Si37  1  0.415144  0.415144  0.415144  1.0
  Si  Si38  1  0.915144  0.915144  0.915144  1.0
