# generated using pymatgen
data_UTeP
_symmetry_space_group_name_H-M   'P 1'
_cell_length_a   4.08565975
_cell_length_b   4.08565975
_cell_length_c   8.89801441
_cell_angle_alpha   103.27250281
_cell_angle_beta   103.27250281
_cell_angle_gamma   90.00000003
_symmetry_Int_Tables_number   1
_chemical_formula_structural   UTeP
_chemical_formula_sum   'U2 Te2 P2'
_cell_volume   140.48435532
_cell_formula_units_Z   2
loop_
 _symmetry_equiv_pos_site_id
 _symmetry_equiv_pos_as_xyz
  1  'x, y, z'
loop_
 _atom_site_type_symbol
 _atom_site_label
 _atom_site_symmetry_multiplicity
 _atom_site_fract_x
 _atom_site_fract_y
 _atom_site_fract_z
 _atom_site_occupancy
  U  U1  1  0.891014  0.891014  0.782028  1.0
  U  U2  1  0.108986  0.108986  0.217972  1.0
  Te  Te3  1  0.316333  0.316333  0.632666  1.0
  Te  Te4  1  0.683667  0.683667  0.367334  1.0
  P  P5  1  0.000000  0.500000  0.000000  1.0
  P  P6  1  0.500000  0.000000  0.000000  1.0
