# generated using pymatgen
data_Mn(ReO4)2
_symmetry_space_group_name_H-M   'P 1'
_cell_length_a   5.95269074
_cell_length_b   5.95269033
_cell_length_c   6.55761966
_cell_angle_alpha   90.00000000
_cell_angle_beta   90.00000000
_cell_angle_gamma   119.99999782
_symmetry_Int_Tables_number   1
_chemical_formula_structural   Mn(ReO4)2
_chemical_formula_sum   'Mn1 Re2 O8'
_cell_volume   201.23498048
_cell_formula_units_Z   1
loop_
 _symmetry_equiv_pos_site_id
 _symmetry_equiv_pos_as_xyz
  1  'x, y, z'
loop_
 _atom_site_type_symbol
 _atom_site_label
 _atom_site_symmetry_multiplicity
 _atom_site_fract_x
 _atom_site_fract_y
 _atom_site_fract_z
 _atom_site_occupancy
  Mn  Mn1  1  0.000000  0.000000  0.000000  1.0
  Re  Re2  1  0.333334  0.666667  0.276259  1.0
  Re  Re3  1  0.666668  0.333333  0.723741  1.0
  O  O4  1  0.666668  0.333333  0.459421  1.0
  O  O5  1  0.333334  0.666667  0.540579  1.0
  O  O6  1  0.823843  0.169047  0.813850  1.0
  O  O7  1  0.169047  0.345203  0.186150  1.0
  O  O8  1  0.654797  0.823843  0.186150  1.0
  O  O9  1  0.345204  0.176158  0.813850  1.0
  O  O10  1  0.830954  0.654795  0.813850  1.0
  O  O11  1  0.176158  0.830953  0.186150  1.0
