# generated using pymatgen
data_Ba2CoMoO6
_symmetry_space_group_name_H-M   'P 1'
_cell_length_a   5.84748311
_cell_length_b   5.84785413
_cell_length_c   5.73443316
_cell_angle_alpha   60.65266036
_cell_angle_beta   60.65064757
_cell_angle_gamma   58.72531788
_symmetry_Int_Tables_number   1
_chemical_formula_structural   Ba2CoMoO6
_chemical_formula_sum   'Ba2 Co1 Mo1 O6'
_cell_volume   138.58358651
_cell_formula_units_Z   1
loop_
 _symmetry_equiv_pos_site_id
 _symmetry_equiv_pos_as_xyz
  1  'x, y, z'
loop_
 _atom_site_type_symbol
 _atom_site_label
 _atom_site_symmetry_multiplicity
 _atom_site_fract_x
 _atom_site_fract_y
 _atom_site_fract_z
 _atom_site_occupancy
  Ba  Ba1  1  0.749987  0.750020  0.750082  1.0
  Ba  Ba2  1  0.250013  0.249980  0.249918  1.0
  Co  Co3  1  0.000000  0.000000  0.000000  1.0
  Mo  Mo4  1  0.500000  0.500000  0.500000  1.0
  O  O5  1  0.741861  0.258070  0.741613  1.0
  O  O6  1  0.741579  0.258425  0.258097  1.0
  O  O7  1  0.267670  0.267724  0.732287  1.0
  O  O8  1  0.258421  0.741575  0.741903  1.0
  O  O9  1  0.732330  0.732276  0.267713  1.0
  O  O10  1  0.258139  0.741930  0.258387  1.0
