# generated using pymatgen
data_K2P3
_symmetry_space_group_name_H-M   'P 1'
_cell_length_a   8.40045833
_cell_length_b   8.57298172
_cell_length_c   10.35578805
_cell_angle_alpha   78.53816850
_cell_angle_beta   66.07174668
_cell_angle_gamma   60.66349975
_symmetry_Int_Tables_number   1
_chemical_formula_structural   K2P3
_chemical_formula_sum   'K8 P12'
_cell_volume   594.27235320
_cell_formula_units_Z   4
loop_
 _symmetry_equiv_pos_site_id
 _symmetry_equiv_pos_as_xyz
  1  'x, y, z'
loop_
 _atom_site_type_symbol
 _atom_site_label
 _atom_site_symmetry_multiplicity
 _atom_site_fract_x
 _atom_site_fract_y
 _atom_site_fract_z
 _atom_site_occupancy
  K  K1  1  0.249588  0.250000  0.500824  1.0
  K  K2  1  0.500412  0.250000  0.999176  1.0
  K  K3  1  0.988316  0.750000  0.023367  1.0
  K  K4  1  0.261684  0.750000  0.476633  1.0
  K  K5  1  0.738316  0.250000  0.523367  1.0
  K  K6  1  0.499588  0.750000  0.000824  1.0
  K  K7  1  0.750412  0.750000  0.499176  1.0
  K  K8  1  0.011684  0.250000  0.976633  1.0
  P  P9  1  0.419749  0.604753  0.754420  1.0
  P  P10  1  0.019746  0.960509  0.250000  1.0
  P  P11  1  0.269746  0.460509  0.750000  1.0
  P  P12  1  0.174170  0.104753  0.245580  1.0
  P  P13  1  0.980254  0.039491  0.750000  1.0
  P  P14  1  0.278923  0.895247  0.745580  1.0
  P  P15  1  0.721077  0.104753  0.254420  1.0
  P  P16  1  0.730254  0.539491  0.250000  1.0
  P  P17  1  0.975498  0.604753  0.745580  1.0
  P  P18  1  0.580251  0.395247  0.245580  1.0
  P  P19  1  0.825830  0.895247  0.754420  1.0
  P  P20  1  0.024502  0.395247  0.254420  1.0
