# generated using pymatgen
data_V2CdO6
_symmetry_space_group_name_H-M   'P 1'
_cell_length_a   3.65814893
_cell_length_b   5.36517891
_cell_length_c   7.22040989
_cell_angle_alpha   102.09037072
_cell_angle_beta   90.00027313
_cell_angle_gamma   109.93230026
_symmetry_Int_Tables_number   1
_chemical_formula_structural   V2CdO6
_chemical_formula_sum   'V2 Cd1 O6'
_cell_volume   129.87439453
_cell_formula_units_Z   1
loop_
 _symmetry_equiv_pos_site_id
 _symmetry_equiv_pos_as_xyz
  1  'x, y, z'
loop_
 _atom_site_type_symbol
 _atom_site_label
 _atom_site_symmetry_multiplicity
 _atom_site_fract_x
 _atom_site_fract_y
 _atom_site_fract_z
 _atom_site_occupancy
  V  V1  1  0.233211  0.466440  0.672204  1.0
  V  V2  1  0.766790  0.533561  0.327792  1.0
  Cd  Cd3  1  0.000005  0.000009  0.000007  1.0
  O  O4  1  0.083488  0.167054  0.734221  1.0
  O  O5  1  0.252342  0.504671  0.398909  1.0
  O  O6  1  0.747661  0.495334  0.601081  1.0
  O  O7  1  0.360928  0.721889  0.874081  1.0
  O  O8  1  0.639068  0.278102  0.125931  1.0
  O  O9  1  0.916508  0.832939  0.265776  1.0
