# generated using pymatgen
data_Sr2Fe2S2OF2
_symmetry_space_group_name_H-M   'P 1'
_cell_length_a   4.10445676
_cell_length_b   4.10650350
_cell_length_c   9.55482041
_cell_angle_alpha   102.41264079
_cell_angle_beta   102.40851351
_cell_angle_gamma   89.98696152
_symmetry_Int_Tables_number   1
_chemical_formula_structural   Sr2Fe2S2OF2
_chemical_formula_sum   'Sr2 Fe2 S2 O1 F2'
_cell_volume   153.42921597
_cell_formula_units_Z   1
loop_
 _symmetry_equiv_pos_site_id
 _symmetry_equiv_pos_as_xyz
  1  'x, y, z'
loop_
 _atom_site_type_symbol
 _atom_site_label
 _atom_site_symmetry_multiplicity
 _atom_site_fract_x
 _atom_site_fract_y
 _atom_site_fract_z
 _atom_site_occupancy
  Sr  Sr1  1  0.328244  0.328233  0.656461  1.0
  Sr  Sr2  1  0.671746  0.671751  0.343550  1.0
  Fe  Fe3  1  0.000029  0.500003  0.999970  1.0
  Fe  Fe4  1  0.499931  0.000005  0.999966  1.0
  S  S5  1  0.094518  0.094527  0.189104  1.0
  S  S6  1  0.905475  0.905464  0.810904  1.0
  O  O7  1  0.500055  0.500019  0.000003  1.0
  F  F8  1  0.750012  0.250009  0.500037  1.0
  F  F9  1  0.249989  0.749990  0.500004  1.0
