# generated using pymatgen
data_NaNiIO6
_symmetry_space_group_name_H-M   'P 1'
_cell_length_a   4.99751501
_cell_length_b   4.99735828
_cell_length_c   5.30831463
_cell_angle_alpha   90.00081748
_cell_angle_beta   89.99756829
_cell_angle_gamma   120.00002058
_symmetry_Int_Tables_number   1
_chemical_formula_structural   NaNiIO6
_chemical_formula_sum   'Na1 Ni1 I1 O6'
_cell_volume   114.81054839
_cell_formula_units_Z   1
loop_
 _symmetry_equiv_pos_site_id
 _symmetry_equiv_pos_as_xyz
  1  'x, y, z'
loop_
 _atom_site_type_symbol
 _atom_site_label
 _atom_site_symmetry_multiplicity
 _atom_site_fract_x
 _atom_site_fract_y
 _atom_site_fract_z
 _atom_site_occupancy
  Na  Na1  1  0.000040  0.000011  0.000002  1.0
  Ni  Ni2  1  0.333098  0.666569  0.499987  1.0
  I  I3  1  0.666704  0.333351  0.499999  1.0
  O  O4  1  0.002811  0.375894  0.700970  1.0
  O  O5  1  0.624144  0.997209  0.299034  1.0
  O  O6  1  0.002823  0.626918  0.299032  1.0
  O  O7  1  0.373125  0.375894  0.299026  1.0
  O  O8  1  0.624135  0.626930  0.700970  1.0
  O  O9  1  0.373119  0.997226  0.700979  1.0
