# generated using pymatgen
data_Sm3Y
_symmetry_space_group_name_H-M   'P 1'
_cell_length_a   7.34524710
_cell_length_b   7.34524760
_cell_length_c   5.81886645
_cell_angle_alpha   90.00000000
_cell_angle_beta   90.00000000
_cell_angle_gamma   120.00000227
_symmetry_Int_Tables_number   1
_chemical_formula_structural   Sm3Y
_chemical_formula_sum   'Sm6 Y2'
_cell_volume   271.88288010
_cell_formula_units_Z   2
loop_
 _symmetry_equiv_pos_site_id
 _symmetry_equiv_pos_as_xyz
  1  'x, y, z'
loop_
 _atom_site_type_symbol
 _atom_site_label
 _atom_site_symmetry_multiplicity
 _atom_site_fract_x
 _atom_site_fract_y
 _atom_site_fract_z
 _atom_site_occupancy
  Sm  Sm1  1  0.166592  0.333184  0.250001  1.0
  Sm  Sm2  1  0.666815  0.833407  0.250001  1.0
  Sm  Sm3  1  0.166592  0.833407  0.250001  1.0
  Sm  Sm4  1  0.833407  0.666815  0.750001  1.0
  Sm  Sm5  1  0.333184  0.166592  0.750001  1.0
  Sm  Sm6  1  0.833408  0.166592  0.750001  1.0
  Y  Y7  1  0.333334  0.666667  0.750001  1.0
  Y  Y8  1  0.666666  0.333334  0.250001  1.0
