# generated using pymatgen
data_BaTiO3
_symmetry_space_group_name_H-M   'P 1'
_cell_length_a   5.79788166
_cell_length_b   5.79788162
_cell_length_c   14.14208138
_cell_angle_alpha   90.00000000
_cell_angle_beta   90.00000000
_cell_angle_gamma   119.51118521
_symmetry_Int_Tables_number   1
_chemical_formula_structural   BaTiO3
_chemical_formula_sum   'Ba6 Ti6 O18'
_cell_volume   413.71457380
_cell_formula_units_Z   6
loop_
 _symmetry_equiv_pos_site_id
 _symmetry_equiv_pos_as_xyz
  1  'x, y, z'
loop_
 _atom_site_type_symbol
 _atom_site_label
 _atom_site_symmetry_multiplicity
 _atom_site_fract_x
 _atom_site_fract_y
 _atom_site_fract_z
 _atom_site_occupancy
  Ba  Ba1  1  0.348996  0.681647  0.903844  1.0
  Ba  Ba2  1  0.681647  0.348996  0.096156  1.0
  Ba  Ba3  1  0.651004  0.318353  0.403844  1.0
  Ba  Ba4  1  0.999568  0.000432  0.750000  1.0
  Ba  Ba5  1  0.000432  0.999568  0.250000  1.0
  Ba  Ba6  1  0.318353  0.651004  0.596156  1.0
  Ti  Ti7  1  0.358095  0.694397  0.154229  1.0
  Ti  Ti8  1  0.694397  0.358095  0.845771  1.0
  Ti  Ti9  1  0.970648  0.970648  0.500000  1.0
  Ti  Ti10  1  0.305603  0.641905  0.345771  1.0
  Ti  Ti11  1  0.029352  0.029352  0.000000  1.0
  Ti  Ti12  1  0.641905  0.305603  0.654229  1.0
  O  O13  1  0.166076  0.835726  0.419706  1.0
  O  O14  1  0.836603  0.673765  0.580685  1.0
  O  O15  1  0.518738  0.031640  0.746175  1.0
  O  O16  1  0.832596  0.664673  0.919157  1.0
  O  O17  1  0.835726  0.166076  0.580294  1.0
  O  O18  1  0.163397  0.326235  0.080685  1.0
  O  O19  1  0.664673  0.832596  0.080843  1.0
  O  O20  1  0.968360  0.481262  0.753825  1.0
  O  O21  1  0.479831  0.520169  0.250000  1.0
  O  O22  1  0.164274  0.833924  0.080294  1.0
  O  O23  1  0.335327  0.167404  0.580843  1.0
  O  O24  1  0.520169  0.479831  0.750000  1.0
  O  O25  1  0.673765  0.836603  0.419315  1.0
  O  O26  1  0.833924  0.164274  0.919706  1.0
  O  O27  1  0.326235  0.163397  0.919315  1.0
  O  O28  1  0.481262  0.968360  0.246175  1.0
  O  O29  1  0.031640  0.518738  0.253825  1.0
  O  O30  1  0.167404  0.335327  0.419157  1.0
