# generated using pymatgen
data_MgZn5
_symmetry_space_group_name_H-M   'P 1'
_cell_length_a   10.18774788
_cell_length_b   10.18774788
_cell_length_c   17.63574636
_cell_angle_alpha   85.91950147
_cell_angle_beta   94.08049852
_cell_angle_gamma   120.66903543
_symmetry_Int_Tables_number   1
_chemical_formula_structural   MgZn5
_chemical_formula_sum   'Mg16 Zn80'
_cell_volume   1569.10568988
_cell_formula_units_Z   16
loop_
 _symmetry_equiv_pos_site_id
 _symmetry_equiv_pos_as_xyz
  1  'x, y, z'
loop_
 _atom_site_type_symbol
 _atom_site_label
 _atom_site_symmetry_multiplicity
 _atom_site_fract_x
 _atom_site_fract_y
 _atom_site_fract_z
 _atom_site_occupancy
  Mg  Mg1  1  0.827270  0.172730  0.280905  1.0
  Mg  Mg2  1  0.172730  0.827270  0.719095  1.0
  Mg  Mg3  1  0.672730  0.327270  0.719095  1.0
  Mg  Mg4  1  0.172730  0.327270  0.219095  1.0
  Mg  Mg5  1  0.334307  0.165693  0.966487  1.0
  Mg  Mg6  1  0.665693  0.334307  0.533513  1.0
  Mg  Mg7  1  0.165693  0.834307  0.533513  1.0
  Mg  Mg8  1  0.827270  0.672730  0.780905  1.0
  Mg  Mg9  1  0.327270  0.672730  0.280905  1.0
  Mg  Mg10  1  0.327270  0.172730  0.780905  1.0
  Mg  Mg11  1  0.834307  0.665693  0.966487  1.0
  Mg  Mg12  1  0.665693  0.834307  0.033513  1.0
  Mg  Mg13  1  0.334307  0.665693  0.466487  1.0
  Mg  Mg14  1  0.672730  0.827270  0.219095  1.0
  Mg  Mg15  1  0.834307  0.165693  0.466487  1.0
  Mg  Mg16  1  0.165693  0.334307  0.033513  1.0
  Zn  Zn17  1  0.000000  0.000000  0.500000  1.0
  Zn  Zn18  1  0.665370  0.834630  0.535336  1.0
  Zn  Zn19  1  0.668132  0.831868  0.710797  1.0
  Zn  Zn20  1  0.417522  0.582478  0.123145  1.0
  Zn  Zn21  1  0.082478  0.417522  0.376855  1.0
  Zn  Zn22  1  0.827175  0.419404  0.369568  1.0
  Zn  Zn23  1  0.082580  0.170316  0.371999  1.0
  Zn  Zn24  1  0.834630  0.165370  0.964664  1.0
  Zn  Zn25  1  0.491142  0.008858  0.246764  1.0
  Zn  Zn26  1  0.991142  0.008858  0.746764  1.0
  Zn  Zn27  1  0.670316  0.082580  0.128001  1.0
  Zn  Zn28  1  0.329684  0.417420  0.371999  1.0
  Zn  Zn29  1  0.334630  0.665370  0.964664  1.0
  Zn  Zn30  1  0.170316  0.082580  0.628001  1.0
  Zn  Zn31  1  0.917420  0.829684  0.628001  1.0
  Zn  Zn32  1  0.327175  0.919404  0.369568  1.0
  Zn  Zn33  1  0.165370  0.834630  0.035336  1.0
  Zn  Zn34  1  0.919404  0.327175  0.630432  1.0
  Zn  Zn35  1  0.831868  0.168132  0.789203  1.0
  Zn  Zn36  1  0.834630  0.665370  0.464664  1.0
  Zn  Zn37  1  0.580596  0.172825  0.369568  1.0
  Zn  Zn38  1  0.168132  0.831868  0.210797  1.0
  Zn  Zn39  1  0.672825  0.080596  0.630432  1.0
  Zn  Zn40  1  0.082478  0.917522  0.876855  1.0
  Zn  Zn41  1  0.500000  0.000000  0.500000  1.0
  Zn  Zn42  1  0.668132  0.331868  0.210797  1.0
  Zn  Zn43  1  0.327175  0.419404  0.869568  1.0
  Zn  Zn44  1  0.919404  0.827175  0.130432  1.0
  Zn  Zn45  1  0.172825  0.580596  0.630432  1.0
  Zn  Zn46  1  0.080596  0.672825  0.369568  1.0
  Zn  Zn47  1  0.583479  0.416521  0.387987  1.0
  Zn  Zn48  1  0.500000  0.000000  0.000000  1.0
  Zn  Zn49  1  0.916521  0.083479  0.612013  1.0
  Zn  Zn50  1  0.000000  0.000000  0.000000  1.0
  Zn  Zn51  1  0.582580  0.170316  0.871999  1.0
  Zn  Zn52  1  0.582580  0.670316  0.371999  1.0
  Zn  Zn53  1  0.008858  0.991142  0.253236  1.0
  Zn  Zn54  1  0.580596  0.672825  0.869568  1.0
  Zn  Zn55  1  0.917522  0.582478  0.623145  1.0
  Zn  Zn56  1  0.500000  0.500000  0.000000  1.0
  Zn  Zn57  1  0.417420  0.829684  0.128001  1.0
  Zn  Zn58  1  0.670316  0.582580  0.628001  1.0
  Zn  Zn59  1  0.508858  0.491142  0.253236  1.0
  Zn  Zn60  1  0.416521  0.083479  0.112013  1.0
  Zn  Zn61  1  0.168132  0.331868  0.710797  1.0
  Zn  Zn62  1  0.334630  0.165370  0.464664  1.0
  Zn  Zn63  1  0.582478  0.417522  0.876855  1.0
  Zn  Zn64  1  0.829684  0.417420  0.871999  1.0
  Zn  Zn65  1  0.172825  0.080596  0.130432  1.0
  Zn  Zn66  1  0.665370  0.334630  0.035336  1.0
  Zn  Zn67  1  0.165370  0.334630  0.535336  1.0
  Zn  Zn68  1  0.080596  0.172825  0.869568  1.0
  Zn  Zn69  1  0.000000  0.500000  0.500000  1.0
  Zn  Zn70  1  0.008858  0.491142  0.753236  1.0
  Zn  Zn71  1  0.417522  0.082478  0.623145  1.0
  Zn  Zn72  1  0.582478  0.917522  0.376855  1.0
  Zn  Zn73  1  0.331868  0.168132  0.289203  1.0
  Zn  Zn74  1  0.508858  0.991142  0.753236  1.0
  Zn  Zn75  1  0.500000  0.500000  0.500000  1.0
  Zn  Zn76  1  0.417420  0.329684  0.628001  1.0
  Zn  Zn77  1  0.917522  0.082478  0.123145  1.0
  Zn  Zn78  1  0.329684  0.917420  0.871999  1.0
  Zn  Zn79  1  0.083479  0.916521  0.387987  1.0
  Zn  Zn80  1  0.831868  0.668132  0.289203  1.0
  Zn  Zn81  1  0.000000  0.500000  0.000000  1.0
  Zn  Zn82  1  0.829684  0.917420  0.371999  1.0
  Zn  Zn83  1  0.331868  0.668132  0.789203  1.0
  Zn  Zn84  1  0.083479  0.416521  0.887987  1.0
  Zn  Zn85  1  0.917420  0.329684  0.128001  1.0
  Zn  Zn86  1  0.170316  0.582580  0.128001  1.0
  Zn  Zn87  1  0.672825  0.580596  0.130432  1.0
  Zn  Zn88  1  0.583479  0.916521  0.887987  1.0
  Zn  Zn89  1  0.416521  0.583479  0.612013  1.0
  Zn  Zn90  1  0.491142  0.508858  0.746764  1.0
  Zn  Zn91  1  0.916521  0.583479  0.112013  1.0
  Zn  Zn92  1  0.991142  0.508858  0.246764  1.0
  Zn  Zn93  1  0.082580  0.670316  0.871999  1.0
  Zn  Zn94  1  0.419404  0.327175  0.130432  1.0
  Zn  Zn95  1  0.419404  0.827175  0.630432  1.0
  Zn  Zn96  1  0.827175  0.919404  0.869568  1.0
