# generated using pymatgen
data_BF3
_symmetry_space_group_name_H-M   'P 1'
_cell_length_a   4.84553383
_cell_length_b   7.52756350
_cell_length_c   14.27171454
_cell_angle_alpha   90.00000000
_cell_angle_beta   90.00000000
_cell_angle_gamma   107.55562373
_symmetry_Int_Tables_number   1
_chemical_formula_structural   BF3
_chemical_formula_sum   'B8 F24'
_cell_volume   496.31631119
_cell_formula_units_Z   8
loop_
 _symmetry_equiv_pos_site_id
 _symmetry_equiv_pos_as_xyz
  1  'x, y, z'
loop_
 _atom_site_type_symbol
 _atom_site_label
 _atom_site_symmetry_multiplicity
 _atom_site_fract_x
 _atom_site_fract_y
 _atom_site_fract_z
 _atom_site_occupancy
  B  B1  1  0.863159  0.233422  0.135836  1.0
  B  B2  1  0.136841  0.266578  0.635836  1.0
  B  B3  1  0.523719  0.278896  0.883873  1.0
  B  B4  1  0.523719  0.778896  0.616127  1.0
  B  B5  1  0.476281  0.221104  0.383873  1.0
  B  B6  1  0.863159  0.733422  0.364164  1.0
  B  B7  1  0.476281  0.721104  0.116127  1.0
  B  B8  1  0.136841  0.766578  0.864164  1.0
  F  F9  1  0.749428  0.769807  0.284103  1.0
  F  F10  1  0.070939  0.652772  0.363040  1.0
  F  F11  1  0.929061  0.847228  0.863040  1.0
  F  F12  1  0.766551  0.780140  0.444887  1.0
  F  F13  1  0.250572  0.730193  0.784103  1.0
  F  F14  1  0.739311  0.423144  0.853700  1.0
  F  F15  1  0.260689  0.076856  0.353700  1.0
  F  F16  1  0.295137  0.806331  0.574970  1.0
  F  F17  1  0.704863  0.693669  0.074970  1.0
  F  F18  1  0.749428  0.269807  0.215897  1.0
  F  F19  1  0.539910  0.606849  0.628230  1.0
  F  F20  1  0.766551  0.280140  0.055113  1.0
  F  F21  1  0.233449  0.719860  0.944887  1.0
  F  F22  1  0.260689  0.576856  0.146300  1.0
  F  F23  1  0.929061  0.347228  0.636960  1.0
  F  F24  1  0.460090  0.393151  0.371770  1.0
  F  F25  1  0.233449  0.219860  0.555113  1.0
  F  F26  1  0.070939  0.152772  0.136960  1.0
  F  F27  1  0.460090  0.893151  0.128230  1.0
  F  F28  1  0.250572  0.230193  0.715897  1.0
  F  F29  1  0.704863  0.193669  0.425030  1.0
  F  F30  1  0.539910  0.106849  0.871770  1.0
  F  F31  1  0.739311  0.923144  0.646300  1.0
  F  F32  1  0.295137  0.306331  0.925030  1.0
