# generated using pymatgen
data_ThMg3
_symmetry_space_group_name_H-M   'P 1'
_cell_length_a   6.78487263
_cell_length_b   6.78487301
_cell_length_c   5.22153003
_cell_angle_alpha   90.00000000
_cell_angle_beta   90.00000000
_cell_angle_gamma   120.00000306
_symmetry_Int_Tables_number   1
_chemical_formula_structural   ThMg3
_chemical_formula_sum   'Th2 Mg6'
_cell_volume   208.16697014
_cell_formula_units_Z   2
loop_
 _symmetry_equiv_pos_site_id
 _symmetry_equiv_pos_as_xyz
  1  'x, y, z'
loop_
 _atom_site_type_symbol
 _atom_site_label
 _atom_site_symmetry_multiplicity
 _atom_site_fract_x
 _atom_site_fract_y
 _atom_site_fract_z
 _atom_site_occupancy
  Th  Th1  1  0.666667  0.333333  0.250001  1.0
  Th  Th2  1  0.333333  0.666666  0.750000  1.0
  Mg  Mg3  1  0.160778  0.321557  0.250001  1.0
  Mg  Mg4  1  0.160777  0.839222  0.250001  1.0
  Mg  Mg5  1  0.678444  0.839222  0.250001  1.0
  Mg  Mg6  1  0.321556  0.160777  0.750000  1.0
  Mg  Mg7  1  0.839221  0.160777  0.750000  1.0
  Mg  Mg8  1  0.839222  0.678442  0.750000  1.0
