# generated using pymatgen
data_SiC
_symmetry_space_group_name_H-M   'P 1'
_cell_length_a   3.09404143
_cell_length_b   3.09404137
_cell_length_c   45.55453504
_cell_angle_alpha   90.00000000
_cell_angle_beta   90.00000000
_cell_angle_gamma   120.00000072
_symmetry_Int_Tables_number   1
_chemical_formula_structural   SiC
_chemical_formula_sum   'Si18 C18'
_cell_volume   377.67173888
_cell_formula_units_Z   18
loop_
 _symmetry_equiv_pos_site_id
 _symmetry_equiv_pos_as_xyz
  1  'x, y, z'
loop_
 _atom_site_type_symbol
 _atom_site_label
 _atom_site_symmetry_multiplicity
 _atom_site_fract_x
 _atom_site_fract_y
 _atom_site_fract_z
 _atom_site_occupancy
  Si  Si1  1  0.000000  0.000000  0.222202  1.0
  Si  Si2  1  0.666667  0.333333  0.333316  1.0
  Si  Si3  1  0.333333  0.666667  0.722229  1.0
  Si  Si4  1  0.666667  0.333333  0.555541  1.0
  Si  Si5  1  0.000000  0.000000  0.444427  1.0
  Si  Si6  1  0.333333  0.666667  0.277757  1.0
  Si  Si7  1  0.000000  0.000000  0.666647  1.0
  Si  Si8  1  0.333333  0.666667  0.055531  1.0
  Si  Si9  1  0.333333  0.666667  0.611087  1.0
  Si  Si10  1  0.666667  0.333333  0.888900  1.0
  Si  Si11  1  0.000000  0.000000  0.833316  1.0
  Si  Si12  1  0.333333  0.666667  0.944389  1.0
  Si  Si13  1  0.666667  0.333333  0.111094  1.0
  Si  Si14  1  0.000000  0.000000  0.999982  1.0
  Si  Si15  1  0.333333  0.666667  0.166642  1.0
  Si  Si16  1  0.666667  0.333333  0.777727  1.0
  Si  Si17  1  0.333333  0.666667  0.388866  1.0
  Si  Si18  1  0.333333  0.666667  0.499971  1.0
  C  C19  1  0.333333  0.666667  0.541600  1.0
  C  C20  1  0.666667  0.333333  0.930567  1.0
  C  C21  1  0.000000  0.000000  0.041764  1.0
  C  C22  1  0.666667  0.333333  0.597315  1.0
  C  C23  1  0.000000  0.000000  0.263984  1.0
  C  C24  1  0.333333  0.666667  0.208281  1.0
  C  C25  1  0.333333  0.666667  0.430504  1.0
  C  C26  1  0.000000  0.000000  0.708436  1.0
  C  C27  1  0.666667  0.333333  0.152875  1.0
  C  C28  1  0.333333  0.666667  0.986056  1.0
  C  C29  1  0.333333  0.666667  0.763890  1.0
  C  C30  1  0.333333  0.666667  0.097169  1.0
  C  C31  1  0.333333  0.666667  0.319395  1.0
  C  C32  1  0.000000  0.000000  0.486201  1.0
  C  C33  1  0.666667  0.333333  0.819408  1.0
  C  C34  1  0.333333  0.666667  0.652736  1.0
  C  C35  1  0.000000  0.000000  0.875097  1.0
  C  C36  1  0.666667  0.333333  0.375096  1.0
