# generated using pymatgen
data_Al3Pt2
_symmetry_space_group_name_H-M   'P 1'
_cell_length_a   4.12998947
_cell_length_b   4.12998953
_cell_length_c   11.13127523
_cell_angle_alpha   90.00000000
_cell_angle_beta   90.00000000
_cell_angle_gamma   119.99999956
_symmetry_Int_Tables_number   1
_chemical_formula_structural   Al3Pt2
_chemical_formula_sum   'Al6 Pt4'
_cell_volume   164.42711992
_cell_formula_units_Z   2
loop_
 _symmetry_equiv_pos_site_id
 _symmetry_equiv_pos_as_xyz
  1  'x, y, z'
loop_
 _atom_site_type_symbol
 _atom_site_label
 _atom_site_symmetry_multiplicity
 _atom_site_fract_x
 _atom_site_fract_y
 _atom_site_fract_z
 _atom_site_occupancy
  Al  Al1  1  0.333333  0.666667  0.333917  1.0
  Al  Al2  1  0.666667  0.333333  0.666083  1.0
  Al  Al3  1  0.000000  0.000000  0.500000  1.0
  Al  Al4  1  0.000000  0.000000  0.000000  1.0
  Al  Al5  1  0.000000  0.000000  0.773199  1.0
  Al  Al6  1  0.000000  0.000000  0.226801  1.0
  Pt  Pt7  1  0.333333  0.666667  0.587759  1.0
  Pt  Pt8  1  0.333333  0.666667  0.103048  1.0
  Pt  Pt9  1  0.666667  0.333333  0.412241  1.0
  Pt  Pt10  1  0.666667  0.333333  0.896952  1.0
