# generated using pymatgen
data_InSb
_symmetry_space_group_name_H-M   'P 1'
_cell_length_a   3.16079294
_cell_length_b   4.51975894
_cell_length_c   4.51975916
_cell_angle_alpha   85.89491180
_cell_angle_beta   70.03323745
_cell_angle_gamma   70.03322727
_symmetry_Int_Tables_number   1
_chemical_formula_structural   InSb
_chemical_formula_sum   'In1 Sb1'
_cell_volume   56.96613613
_cell_formula_units_Z   1
loop_
 _symmetry_equiv_pos_site_id
 _symmetry_equiv_pos_as_xyz
  1  'x, y, z'
loop_
 _atom_site_type_symbol
 _atom_site_label
 _atom_site_symmetry_multiplicity
 _atom_site_fract_x
 _atom_site_fract_y
 _atom_site_fract_z
 _atom_site_occupancy
  In  In1  1  0.098487  0.499587  0.499587  1.0
  Sb  Sb2  1  0.151513  0.000413  0.000413  1.0
