# generated using pymatgen
data_SiO2
_symmetry_space_group_name_H-M   'P 1'
_cell_length_a   4.76284910
_cell_length_b   5.32182824
_cell_length_c   7.79790739
_cell_angle_alpha   82.14550034
_cell_angle_beta   72.21820260
_cell_angle_gamma   63.41773305
_symmetry_Int_Tables_number   1
_chemical_formula_structural   SiO2
_chemical_formula_sum   'Si4 O8'
_cell_volume   168.31612250
_cell_formula_units_Z   4
loop_
 _symmetry_equiv_pos_site_id
 _symmetry_equiv_pos_as_xyz
  1  'x, y, z'
loop_
 _atom_site_type_symbol
 _atom_site_label
 _atom_site_symmetry_multiplicity
 _atom_site_fract_x
 _atom_site_fract_y
 _atom_site_fract_z
 _atom_site_occupancy
  Si  Si1  1  0.061824  0.250000  0.876352  1.0
  Si  Si2  1  0.311824  0.750000  0.376352  1.0
  Si  Si3  1  0.938176  0.750000  0.123648  1.0
  Si  Si4  1  0.688176  0.250000  0.623648  1.0
  O  O5  1  0.000000  0.000000  0.500000  1.0
  O  O6  1  0.000000  0.500000  0.000000  1.0
  O  O7  1  0.000000  0.000000  0.000000  1.0
  O  O8  1  0.500000  0.500000  0.500000  1.0
  O  O9  1  0.438783  0.122435  0.750000  1.0
  O  O10  1  0.811218  0.377565  0.750000  1.0
  O  O11  1  0.188783  0.622435  0.250000  1.0
  O  O12  1  0.561218  0.877565  0.250000  1.0
