# generated using pymatgen
data_As3Ir
_symmetry_space_group_name_H-M   'P 1'
_cell_length_a   7.44435705
_cell_length_b   7.44435746
_cell_length_c   7.44435764
_cell_angle_alpha   109.47122115
_cell_angle_beta   109.47122225
_cell_angle_gamma   109.47122194
_symmetry_Int_Tables_number   1
_chemical_formula_structural   As3Ir
_chemical_formula_sum   'As12 Ir4'
_cell_volume   317.58481844
_cell_formula_units_Z   4
loop_
 _symmetry_equiv_pos_site_id
 _symmetry_equiv_pos_as_xyz
  1  'x, y, z'
loop_
 _atom_site_type_symbol
 _atom_site_label
 _atom_site_symmetry_multiplicity
 _atom_site_fract_x
 _atom_site_fract_y
 _atom_site_fract_z
 _atom_site_occupancy
  As  As1  1  0.493699  0.145845  0.347854  1.0
  As  As2  1  0.145845  0.652146  0.797991  1.0
  As  As3  1  0.347854  0.202009  0.854155  1.0
  As  As4  1  0.854155  0.652146  0.506301  1.0
  As  As5  1  0.652146  0.797991  0.145845  1.0
  As  As6  1  0.854155  0.347854  0.202009  1.0
  As  As7  1  0.652146  0.506301  0.854155  1.0
  As  As8  1  0.347854  0.493699  0.145845  1.0
  As  As9  1  0.145845  0.347854  0.493699  1.0
  As  As10  1  0.797991  0.145845  0.652146  1.0
  As  As11  1  0.202009  0.854155  0.347854  1.0
  As  As12  1  0.506301  0.854155  0.652146  1.0
  Ir  Ir13  1  0.500000  0.500000  0.500000  1.0
  Ir  Ir14  1  0.000000  0.500000  0.000000  1.0
  Ir  Ir15  1  0.000000  0.000000  0.500000  1.0
  Ir  Ir16  1  0.500000  0.000000  0.000000  1.0
