# generated using pymatgen
data_RbN3
_symmetry_space_group_name_H-M   'P 1'
_cell_length_a   5.61196062
_cell_length_b   3.90687712
_cell_length_c   3.90687712
_cell_angle_alpha   90.00000000
_cell_angle_beta   90.00000000
_cell_angle_gamma   90.00000000
_symmetry_Int_Tables_number   1
_chemical_formula_structural   RbN3
_chemical_formula_sum   'Rb1 N3'
_cell_volume   85.65922063
_cell_formula_units_Z   1
loop_
 _symmetry_equiv_pos_site_id
 _symmetry_equiv_pos_as_xyz
  1  'x, y, z'
loop_
 _atom_site_type_symbol
 _atom_site_label
 _atom_site_symmetry_multiplicity
 _atom_site_fract_x
 _atom_site_fract_y
 _atom_site_fract_z
 _atom_site_occupancy
  Rb  Rb1  1  0.500000  0.500000  0.500000  1.0
  N  N2  1  0.211565  0.000000  0.000000  1.0
  N  N3  1  0.788435  0.000000  0.000000  1.0
  N  N4  1  0.000000  0.000000  0.000000  1.0
