# generated using pymatgen
data_K(NiS)2
_symmetry_space_group_name_H-M   'P 1'
_cell_length_a   3.81577320
_cell_length_b   3.81577310
_cell_length_c   6.81717739
_cell_angle_alpha   106.25212237
_cell_angle_beta   106.25212201
_cell_angle_gamma   89.99999438
_symmetry_Int_Tables_number   1
_chemical_formula_structural   K(NiS)2
_chemical_formula_sum   'K1 Ni2 S2'
_cell_volume   91.15364540
_cell_formula_units_Z   1
loop_
 _symmetry_equiv_pos_site_id
 _symmetry_equiv_pos_as_xyz
  1  'x, y, z'
loop_
 _atom_site_type_symbol
 _atom_site_label
 _atom_site_symmetry_multiplicity
 _atom_site_fract_x
 _atom_site_fract_y
 _atom_site_fract_z
 _atom_site_occupancy
  K  K1  1  0.000000  0.000000  0.000000  1.0
  Ni  Ni2  1  0.250000  0.750000  0.500000  1.0
  Ni  Ni3  1  0.750000  0.250000  0.500000  1.0
  S  S4  1  0.346476  0.346476  0.692952  1.0
  S  S5  1  0.653524  0.653524  0.307048  1.0
