# generated using pymatgen
data_W2C
_symmetry_space_group_name_H-M   'P 1'
_cell_length_a   3.03365544
_cell_length_b   6.10320184
_cell_length_c   4.74019490
_cell_angle_alpha   90.00000000
_cell_angle_beta   90.00000000
_cell_angle_gamma   119.80565866
_symmetry_Int_Tables_number   1
_chemical_formula_structural   W2C
_chemical_formula_sum   'W4 C2'
_cell_volume   76.15492121
_cell_formula_units_Z   2
loop_
 _symmetry_equiv_pos_site_id
 _symmetry_equiv_pos_as_xyz
  1  'x, y, z'
loop_
 _atom_site_type_symbol
 _atom_site_label
 _atom_site_symmetry_multiplicity
 _atom_site_fract_x
 _atom_site_fract_y
 _atom_site_fract_z
 _atom_site_occupancy
  W  W1  1  0.339986  0.839986  0.742650  1.0
  W  W2  1  0.660014  0.660014  0.242650  1.0
  W  W3  1  0.339986  0.339986  0.757350  1.0
  W  W4  1  0.660014  0.160014  0.257350  1.0
  C  C5  1  0.000000  0.000000  0.000000  1.0
  C  C6  1  0.000000  0.500000  0.500000  1.0
