# generated using pymatgen
data_Mg(B6C)2
_symmetry_space_group_name_H-M   'P 1'
_cell_length_a   5.61538843
_cell_length_b   6.91006538
_cell_length_c   6.91006518
_cell_angle_alpha   70.09734977
_cell_angle_beta   66.02616451
_cell_angle_gamma   66.02616249
_symmetry_Int_Tables_number   1
_chemical_formula_structural   Mg(B6C)2
_chemical_formula_sum   'Mg2 B24 C4'
_cell_volume   218.87059363
_cell_formula_units_Z   2
loop_
 _symmetry_equiv_pos_site_id
 _symmetry_equiv_pos_as_xyz
  1  'x, y, z'
loop_
 _atom_site_type_symbol
 _atom_site_label
 _atom_site_symmetry_multiplicity
 _atom_site_fract_x
 _atom_site_fract_y
 _atom_site_fract_z
 _atom_site_occupancy
  Mg  Mg1  1  0.250000  0.111195  0.388805  1.0
  Mg  Mg2  1  0.750000  0.888805  0.611195  1.0
  B  B3  1  0.675680  0.532993  0.637121  1.0
  B  B4  1  0.593705  0.587880  0.224711  1.0
  B  B5  1  0.902325  0.096606  0.775710  1.0
  B  B6  1  0.654207  0.137121  0.032993  1.0
  B  B7  1  0.845793  0.467007  0.362879  1.0
  B  B8  1  0.345793  0.862879  0.967007  1.0
  B  B9  1  0.274641  0.724290  0.403394  1.0
  B  B10  1  0.406295  0.412120  0.775289  1.0
  B  B11  1  0.324320  0.467007  0.362879  1.0
  B  B12  1  0.666841  0.312497  0.353820  1.0
  B  B13  1  0.725359  0.275710  0.596606  1.0
  B  B14  1  0.166841  0.853820  0.812497  1.0
  B  B15  1  0.824320  0.862879  0.967007  1.0
  B  B16  1  0.093705  0.724711  0.087880  1.0
  B  B17  1  0.402325  0.275710  0.596606  1.0
  B  B18  1  0.154207  0.532993  0.637121  1.0
  B  B19  1  0.597675  0.724290  0.403394  1.0
  B  B20  1  0.225359  0.096606  0.775710  1.0
  B  B21  1  0.774641  0.903394  0.224290  1.0
  B  B22  1  0.906295  0.275289  0.912120  1.0
  B  B23  1  0.333159  0.687503  0.646180  1.0
  B  B24  1  0.097675  0.903394  0.224290  1.0
  B  B25  1  0.833159  0.146180  0.187503  1.0
  B  B26  1  0.175680  0.137121  0.032993  1.0
  C  C27  1  0.662419  0.708446  0.966716  1.0
  C  C28  1  0.162419  0.466716  0.208446  1.0
  C  C29  1  0.837581  0.533284  0.791554  1.0
  C  C30  1  0.337581  0.291554  0.033284  1.0
