# generated using pymatgen
data_Hg2AsF6
_symmetry_space_group_name_H-M   'P 1'
_cell_length_a   5.57650277
_cell_length_b   10.19526309
_cell_length_c   11.87173115
_cell_angle_alpha   90.00000000
_cell_angle_beta   90.00000000
_cell_angle_gamma   92.02623214
_symmetry_Int_Tables_number   1
_chemical_formula_structural   Hg2AsF6
_chemical_formula_sum   'Hg8 As4 F24'
_cell_volume   674.53234905
_cell_formula_units_Z   4
loop_
 _symmetry_equiv_pos_site_id
 _symmetry_equiv_pos_as_xyz
  1  'x, y, z'
loop_
 _atom_site_type_symbol
 _atom_site_label
 _atom_site_symmetry_multiplicity
 _atom_site_fract_x
 _atom_site_fract_y
 _atom_site_fract_z
 _atom_site_occupancy
  Hg  Hg1  1  0.997698  0.609950  0.917753  1.0
  Hg  Hg2  1  0.002302  0.890050  0.417753  1.0
  Hg  Hg3  1  0.002302  0.390050  0.082247  1.0
  Hg  Hg4  1  0.997698  0.109950  0.582247  1.0
  Hg  Hg5  1  0.000920  0.870864  0.976192  1.0
  Hg  Hg6  1  0.999080  0.629136  0.476192  1.0
  Hg  Hg7  1  0.999080  0.129136  0.023808  1.0
  Hg  Hg8  1  0.000920  0.370864  0.523808  1.0
  As  As9  1  0.498530  0.827727  0.704810  1.0
  As  As10  1  0.501470  0.672273  0.204810  1.0
  As  As11  1  0.501470  0.172273  0.295190  1.0
  As  As12  1  0.498530  0.327727  0.795190  1.0
  F  F13  1  0.238791  0.723587  0.686940  1.0
  F  F14  1  0.761209  0.776413  0.186940  1.0
  F  F15  1  0.761209  0.276413  0.313060  1.0
  F  F16  1  0.238791  0.223587  0.813060  1.0
  F  F17  1  0.760080  0.931932  0.724049  1.0
  F  F18  1  0.239920  0.568068  0.224049  1.0
  F  F19  1  0.239920  0.068068  0.275951  1.0
  F  F20  1  0.760080  0.431932  0.775951  1.0
  F  F21  1  0.311033  0.961782  0.730283  1.0
  F  F22  1  0.688967  0.538218  0.230283  1.0
  F  F23  1  0.688967  0.038218  0.269717  1.0
  F  F24  1  0.311033  0.461782  0.769717  1.0
  F  F25  1  0.685463  0.693854  0.679660  1.0
  F  F26  1  0.314537  0.806146  0.179660  1.0
  F  F27  1  0.314537  0.306146  0.320340  1.0
  F  F28  1  0.685463  0.193854  0.820340  1.0
  F  F29  1  0.499288  0.793014  0.851685  1.0
  F  F30  1  0.500712  0.706986  0.351685  1.0
  F  F31  1  0.500712  0.206986  0.148315  1.0
  F  F32  1  0.499288  0.293014  0.648315  1.0
  F  F33  1  0.499757  0.865294  0.559083  1.0
  F  F34  1  0.500243  0.634706  0.059083  1.0
  F  F35  1  0.500243  0.134706  0.440917  1.0
  F  F36  1  0.499757  0.365294  0.940917  1.0
