# generated using pymatgen
data_Al6Fe
_symmetry_space_group_name_H-M   'P 1'
_cell_length_a   4.91636002
_cell_length_b   4.91635979
_cell_length_c   8.81622642
_cell_angle_alpha   90.00000000
_cell_angle_beta   90.00000000
_cell_angle_gamma   98.16301600
_symmetry_Int_Tables_number   1
_chemical_formula_structural   Al6Fe
_chemical_formula_sum   'Al12 Fe2'
_cell_volume   210.93439234
_cell_formula_units_Z   2
loop_
 _symmetry_equiv_pos_site_id
 _symmetry_equiv_pos_as_xyz
  1  'x, y, z'
loop_
 _atom_site_type_symbol
 _atom_site_label
 _atom_site_symmetry_multiplicity
 _atom_site_fract_x
 _atom_site_fract_y
 _atom_site_fract_z
 _atom_site_occupancy
  Al  Al1  1  0.675786  0.320981  0.500505  1.0
  Al  Al2  1  0.145905  0.145905  0.098548  1.0
  Al  Al3  1  0.679019  0.324214  0.000504  1.0
  Al  Al4  1  0.857155  0.857155  0.899536  1.0
  Al  Al5  1  0.028487  0.392175  0.750126  1.0
  Al  Al6  1  0.324214  0.679019  0.000504  1.0
  Al  Al7  1  0.142845  0.142845  0.399536  1.0
  Al  Al8  1  0.971513  0.607825  0.250126  1.0
  Al  Al9  1  0.607825  0.971513  0.250126  1.0
  Al  Al10  1  0.392175  0.028487  0.750126  1.0
  Al  Al11  1  0.854095  0.854095  0.598548  1.0
  Al  Al12  1  0.320981  0.675786  0.500505  1.0
  Fe  Fe13  1  0.460069  0.460069  0.250655  1.0
  Fe  Fe14  1  0.539931  0.539931  0.750655  1.0
