# generated using pymatgen
data_Sm3I
_symmetry_space_group_name_H-M   'P 1'
_cell_length_a   7.02243048
_cell_length_b   7.02243060
_cell_length_c   5.75338078
_cell_angle_alpha   90.00000000
_cell_angle_beta   90.00000000
_cell_angle_gamma   119.99999944
_symmetry_Int_Tables_number   1
_chemical_formula_structural   Sm3I
_chemical_formula_sum   'Sm6 I2'
_cell_volume   245.71329554
_cell_formula_units_Z   2
loop_
 _symmetry_equiv_pos_site_id
 _symmetry_equiv_pos_as_xyz
  1  'x, y, z'
loop_
 _atom_site_type_symbol
 _atom_site_label
 _atom_site_symmetry_multiplicity
 _atom_site_fract_x
 _atom_site_fract_y
 _atom_site_fract_z
 _atom_site_occupancy
  Sm  Sm1  1  0.834185  0.165817  0.750000  1.0
  Sm  Sm2  1  0.331630  0.165817  0.750000  1.0
  Sm  Sm3  1  0.834184  0.668370  0.750000  1.0
  Sm  Sm4  1  0.165816  0.834185  0.250001  1.0
  Sm  Sm5  1  0.668368  0.834185  0.250001  1.0
  Sm  Sm6  1  0.165816  0.331631  0.250001  1.0
  I  I7  1  0.666665  0.333332  0.250001  1.0
  I  I8  1  0.333333  0.666666  0.750000  1.0
