# generated using pymatgen
data_SiC
_symmetry_space_group_name_H-M   'P 1'
_cell_length_a   3.09491757
_cell_length_b   3.09491758
_cell_length_c   53.13655191
_cell_angle_alpha   90.00000000
_cell_angle_beta   90.00000000
_cell_angle_gamma   119.99999981
_symmetry_Int_Tables_number   1
_chemical_formula_structural   SiC
_chemical_formula_sum   'Si21 C21'
_cell_volume   440.78029995
_cell_formula_units_Z   21
loop_
 _symmetry_equiv_pos_site_id
 _symmetry_equiv_pos_as_xyz
  1  'x, y, z'
loop_
 _atom_site_type_symbol
 _atom_site_label
 _atom_site_symmetry_multiplicity
 _atom_site_fract_x
 _atom_site_fract_y
 _atom_site_fract_z
 _atom_site_occupancy
  Si  Si1  1  0.666667  0.333333  0.476202  1.0
  Si  Si2  1  0.666667  0.333333  0.190489  1.0
  Si  Si3  1  0.333333  0.666667  0.619067  1.0
  Si  Si4  1  0.666667  0.333333  0.095209  1.0
  Si  Si5  1  0.333333  0.666667  0.761882  1.0
  Si  Si6  1  0.666667  0.333333  0.904770  1.0
  Si  Si7  1  0.000000  0.000000  0.714269  1.0
  Si  Si8  1  0.000000  0.000000  0.285698  1.0
  Si  Si9  1  0.333333  0.666667  0.952342  1.0
  Si  Si10  1  0.333333  0.666667  0.523767  1.0
  Si  Si11  1  0.000000  0.000000  0.142855  1.0
  Si  Si12  1  0.333333  0.666667  0.238053  1.0
  Si  Si13  1  0.000000  0.000000  0.999995  1.0
  Si  Si14  1  0.000000  0.000000  0.428559  1.0
  Si  Si15  1  0.333333  0.666667  0.333331  1.0
  Si  Si16  1  0.333333  0.666667  0.047639  1.0
  Si  Si17  1  0.666667  0.333333  0.809473  1.0
  Si  Si18  1  0.666667  0.333333  0.666658  1.0
  Si  Si19  1  0.000000  0.000000  0.571418  1.0
  Si  Si20  1  0.666667  0.333333  0.380901  1.0
  Si  Si21  1  0.000000  0.000000  0.857127  1.0
  C  C22  1  0.333333  0.666667  0.273759  1.0
  C  C23  1  0.666667  0.333333  0.702392  1.0
  C  C24  1  0.666667  0.333333  0.940479  1.0
  C  C25  1  0.333333  0.666667  0.654787  1.0
  C  C26  1  0.333333  0.666667  0.797616  1.0
  C  C27  1  0.000000  0.000000  0.321504  1.0
  C  C28  1  0.333333  0.666667  0.083363  1.0
  C  C29  1  0.000000  0.000000  0.607237  1.0
  C  C30  1  0.000000  0.000000  0.035821  1.0
  C  C31  1  0.666667  0.333333  0.226194  1.0
  C  C32  1  0.000000  0.000000  0.178670  1.0
  C  C33  1  0.666667  0.333333  0.511903  1.0
  C  C34  1  0.000000  0.000000  0.892940  1.0
  C  C35  1  0.000000  0.000000  0.464364  1.0
  C  C36  1  0.333333  0.666667  0.559473  1.0
  C  C37  1  0.333333  0.666667  0.988047  1.0
  C  C38  1  0.666667  0.333333  0.845184  1.0
  C  C39  1  0.333333  0.666667  0.369030  1.0
  C  C40  1  0.666667  0.333333  0.130922  1.0
  C  C41  1  0.666667  0.333333  0.416599  1.0
  C  C42  1  0.000000  0.000000  0.750011  1.0
