# generated using pymatgen
data_MgAu3
_symmetry_space_group_name_H-M   'P 1'
_cell_length_a   5.88672030
_cell_length_b   10.54786348
_cell_length_c   24.00663391
_cell_angle_alpha   90.00000000
_cell_angle_beta   90.00000000
_cell_angle_gamma   106.20339426
_symmetry_Int_Tables_number   1
_chemical_formula_structural   MgAu3
_chemical_formula_sum   'Mg20 Au60'
_cell_volume   1431.41567557
_cell_formula_units_Z   20
loop_
 _symmetry_equiv_pos_site_id
 _symmetry_equiv_pos_as_xyz
  1  'x, y, z'
loop_
 _atom_site_type_symbol
 _atom_site_label
 _atom_site_symmetry_multiplicity
 _atom_site_fract_x
 _atom_site_fract_y
 _atom_site_fract_z
 _atom_site_occupancy
  Mg  Mg1  1  0.041999  0.083999  0.201441  1.0
  Mg  Mg2  1  0.875799  0.751598  0.000000  1.0
  Mg  Mg3  1  0.042483  0.084965  0.600134  1.0
  Mg  Mg4  1  0.459070  0.918139  0.099772  1.0
  Mg  Mg5  1  0.706219  0.412437  0.701245  1.0
  Mg  Mg6  1  0.706756  0.413513  0.100005  1.0
  Mg  Mg7  1  0.042483  0.084965  0.399866  1.0
  Mg  Mg8  1  0.626210  0.252420  0.500000  1.0
  Mg  Mg9  1  0.041999  0.083999  0.798559  1.0
  Mg  Mg10  1  0.706219  0.412437  0.298755  1.0
  Mg  Mg11  1  0.459070  0.918139  0.900228  1.0
  Mg  Mg12  1  0.874353  0.748705  0.500000  1.0
  Mg  Mg13  1  0.458244  0.916488  0.298157  1.0
  Mg  Mg14  1  0.290142  0.580284  0.798335  1.0
  Mg  Mg15  1  0.706756  0.413513  0.899995  1.0
  Mg  Mg16  1  0.458244  0.916488  0.701843  1.0
  Mg  Mg17  1  0.123190  0.246380  0.000000  1.0
  Mg  Mg18  1  0.290359  0.580718  0.400366  1.0
  Mg  Mg19  1  0.290142  0.580284  0.201665  1.0
  Mg  Mg20  1  0.290359  0.580718  0.599634  1.0
  Au  Au21  1  0.417078  0.333013  0.199461  1.0
  Au  Au22  1  0.375401  0.750802  0.500000  1.0
  Au  Au23  1  0.208663  0.417325  0.699830  1.0
  Au  Au24  1  0.417078  0.333013  0.800539  1.0
  Au  Au25  1  0.914504  0.333600  0.400164  1.0
  Au  Au26  1  0.167789  0.833516  0.400048  1.0
  Au  Au27  1  0.499927  0.501334  0.500000  1.0
  Au  Au28  1  0.915935  0.333013  0.199461  1.0
  Au  Au29  1  0.419096  0.333600  0.400164  1.0
  Au  Au30  1  0.580276  0.663712  0.699397  1.0
  Au  Au31  1  0.792432  0.584864  0.400292  1.0
  Au  Au32  1  0.791448  0.582895  0.800328  1.0
  Au  Au33  1  0.626712  0.253424  0.000000  1.0
  Au  Au34  1  0.665727  0.833516  0.400048  1.0
  Au  Au35  1  0.083435  0.663712  0.699397  1.0
  Au  Au36  1  0.167785  0.832481  0.199368  1.0
  Au  Au37  1  0.208663  0.417325  0.300170  1.0
  Au  Au38  1  0.540714  0.081428  0.400038  1.0
  Au  Au39  1  0.331063  0.163831  0.300539  1.0
  Au  Au40  1  0.956613  0.913225  0.699877  1.0
  Au  Au41  1  0.083435  0.663712  0.300603  1.0
  Au  Au42  1  0.374527  0.749055  0.000000  1.0
  Au  Au43  1  0.791448  0.582895  0.199672  1.0
  Au  Au44  1  0.122926  0.245852  0.500000  1.0
  Au  Au45  1  0.539601  0.079201  0.800076  1.0
  Au  Au46  1  0.580276  0.663712  0.300603  1.0
  Au  Au47  1  0.956613  0.913225  0.300123  1.0
  Au  Au48  1  0.419096  0.333600  0.599836  1.0
  Au  Au49  1  0.834710  0.165062  0.099961  1.0
  Au  Au50  1  0.664696  0.832481  0.800632  1.0
  Au  Au51  1  0.001406  0.501334  0.500000  1.0
  Au  Au52  1  0.664696  0.832481  0.199368  1.0
  Au  Au53  1  0.832768  0.163831  0.699461  1.0
  Au  Au54  1  0.957098  0.914195  0.900069  1.0
  Au  Au55  1  0.167789  0.833516  0.599952  1.0
  Au  Au56  1  0.581842  0.665247  0.900247  1.0
  Au  Au57  1  0.752419  0.001060  0.500000  1.0
  Au  Au58  1  0.834710  0.165062  0.900039  1.0
  Au  Au59  1  0.167785  0.832481  0.800632  1.0
  Au  Au60  1  0.249813  0.998248  0.000000  1.0
  Au  Au61  1  0.539601  0.079201  0.199924  1.0
  Au  Au62  1  0.330352  0.165062  0.900039  1.0
  Au  Au63  1  0.083406  0.665247  0.900247  1.0
  Au  Au64  1  0.665727  0.833516  0.599952  1.0
  Au  Au65  1  0.248641  0.001060  0.500000  1.0
  Au  Au66  1  0.208620  0.417240  0.900171  1.0
  Au  Au67  1  0.957098  0.914195  0.099931  1.0
  Au  Au68  1  0.083406  0.665247  0.099753  1.0
  Au  Au69  1  0.914504  0.333600  0.599836  1.0
  Au  Au70  1  0.581842  0.665247  0.099753  1.0
  Au  Au71  1  0.915935  0.333013  0.800539  1.0
  Au  Au72  1  0.832768  0.163831  0.300539  1.0
  Au  Au73  1  0.748435  0.998248  0.000000  1.0
  Au  Au74  1  0.330352  0.165062  0.099961  1.0
  Au  Au75  1  0.208620  0.417240  0.099829  1.0
  Au  Au76  1  0.540714  0.081428  0.599962  1.0
  Au  Au77  1  0.331063  0.163831  0.699461  1.0
  Au  Au78  1  0.997333  0.498399  0.000000  1.0
  Au  Au79  1  0.501065  0.498399  0.000000  1.0
  Au  Au80  1  0.792432  0.584864  0.599708  1.0
