# generated using pymatgen
data_Be12W
_symmetry_space_group_name_H-M   'P 1'
_cell_length_a   4.19607809
_cell_length_b   5.51341051
_cell_length_c   5.51340996
_cell_angle_alpha   81.67395809
_cell_angle_beta   67.63325349
_cell_angle_gamma   67.63324873
_symmetry_Int_Tables_number   1
_chemical_formula_structural   Be12W
_chemical_formula_sum   'Be12 W1'
_cell_volume   109.08093519
_cell_formula_units_Z   1
loop_
 _symmetry_equiv_pos_site_id
 _symmetry_equiv_pos_as_xyz
  1  'x, y, z'
loop_
 _atom_site_type_symbol
 _atom_site_label
 _atom_site_symmetry_multiplicity
 _atom_site_fract_x
 _atom_site_fract_y
 _atom_site_fract_z
 _atom_site_occupancy
  Be  Be1  1  0.000000  0.649169  0.350831  1.0
  Be  Be2  1  0.000000  0.500000  0.000000  1.0
  Be  Be3  1  0.649169  0.350831  0.350831  1.0
  Be  Be4  1  0.500000  0.210812  0.789188  1.0
  Be  Be5  1  0.000000  0.350831  0.649169  1.0
  Be  Be6  1  0.500000  0.000000  0.500000  1.0
  Be  Be7  1  0.350831  0.649169  0.649169  1.0
  Be  Be8  1  0.289188  0.210812  0.210812  1.0
  Be  Be9  1  0.500000  0.789188  0.210812  1.0
  Be  Be10  1  0.000000  0.000000  0.500000  1.0
  Be  Be11  1  0.710812  0.789188  0.789188  1.0
  Be  Be12  1  0.500000  0.500000  0.000000  1.0
  W  W13  1  0.000000  0.000000  0.000000  1.0
