# generated using pymatgen
data_Sm3Cd
_symmetry_space_group_name_H-M   'P 1'
_cell_length_a   7.09224563
_cell_length_b   7.09224676
_cell_length_c   5.55596441
_cell_angle_alpha   90.00000000
_cell_angle_beta   90.00000000
_cell_angle_gamma   120.00000938
_symmetry_Int_Tables_number   1
_chemical_formula_structural   Sm3Cd
_chemical_formula_sum   'Sm6 Cd2'
_cell_volume   242.02356382
_cell_formula_units_Z   2
loop_
 _symmetry_equiv_pos_site_id
 _symmetry_equiv_pos_as_xyz
  1  'x, y, z'
loop_
 _atom_site_type_symbol
 _atom_site_label
 _atom_site_symmetry_multiplicity
 _atom_site_fract_x
 _atom_site_fract_y
 _atom_site_fract_z
 _atom_site_occupancy
  Sm  Sm1  1  0.173318  0.346635  0.250000  1.0
  Sm  Sm2  1  0.653365  0.826683  0.250000  1.0
  Sm  Sm3  1  0.173318  0.826683  0.250000  1.0
  Sm  Sm4  1  0.826683  0.653364  0.750001  1.0
  Sm  Sm5  1  0.346634  0.173318  0.750001  1.0
  Sm  Sm6  1  0.826682  0.173318  0.750001  1.0
  Cd  Cd7  1  0.333334  0.666667  0.750001  1.0
  Cd  Cd8  1  0.666668  0.333334  0.250000  1.0
