# generated using pymatgen
data_SiO2
_symmetry_space_group_name_H-M   'P 1'
_cell_length_a   4.64319505
_cell_length_b   5.05865622
_cell_length_c   6.85498444
_cell_angle_alpha   111.65251037
_cell_angle_beta   100.32227488
_cell_angle_gamma   90.00000214
_symmetry_Int_Tables_number   1
_chemical_formula_structural   SiO2
_chemical_formula_sum   'Si6 O12'
_cell_volume   146.84350906
_cell_formula_units_Z   6
loop_
 _symmetry_equiv_pos_site_id
 _symmetry_equiv_pos_as_xyz
  1  'x, y, z'
loop_
 _atom_site_type_symbol
 _atom_site_label
 _atom_site_symmetry_multiplicity
 _atom_site_fract_x
 _atom_site_fract_y
 _atom_site_fract_z
 _atom_site_occupancy
  Si  Si1  1  0.670312  0.691722  0.672919  1.0
  Si  Si2  1  0.329688  0.308278  0.327081  1.0
  Si  Si3  1  0.750000  0.357809  0.000000  1.0
  Si  Si4  1  0.170312  0.981197  0.672919  1.0
  Si  Si5  1  0.250000  0.642191  0.000000  1.0
  Si  Si6  1  0.829688  0.018803  0.327081  1.0
  O  O7  1  0.460424  0.963251  0.181999  1.0
  O  O8  1  0.038768  0.302411  0.850982  1.0
  O  O9  1  0.960424  0.218748  0.181999  1.0
  O  O10  1  0.961232  0.697589  0.149018  1.0
  O  O11  1  0.819341  0.860259  0.516831  1.0
  O  O12  1  0.680659  0.343428  0.483169  1.0
  O  O13  1  0.180659  0.139741  0.483169  1.0
  O  O14  1  0.539576  0.036749  0.818001  1.0
  O  O15  1  0.319341  0.656572  0.516831  1.0
  O  O16  1  0.538768  0.548571  0.850982  1.0
  O  O17  1  0.039576  0.781252  0.818001  1.0
  O  O18  1  0.461232  0.451429  0.149018  1.0
