# generated using pymatgen
data_GaCl2
_symmetry_space_group_name_H-M   'P 1'
_cell_length_a   7.20295504
_cell_length_b   9.91830656
_cell_length_c   9.88494858
_cell_angle_alpha   90.00000000
_cell_angle_beta   90.00000000
_cell_angle_gamma   90.00000000
_symmetry_Int_Tables_number   1
_chemical_formula_structural   GaCl2
_chemical_formula_sum   'Ga8 Cl16'
_cell_volume   706.19176038
_cell_formula_units_Z   8
loop_
 _symmetry_equiv_pos_site_id
 _symmetry_equiv_pos_as_xyz
  1  'x, y, z'
loop_
 _atom_site_type_symbol
 _atom_site_label
 _atom_site_symmetry_multiplicity
 _atom_site_fract_x
 _atom_site_fract_y
 _atom_site_fract_z
 _atom_site_occupancy
  Ga  Ga1  1  0.250000  0.180703  0.000000  1.0
  Ga  Ga2  1  0.750000  0.680703  0.500000  1.0
  Ga  Ga3  1  0.173342  0.750000  0.250000  1.0
  Ga  Ga4  1  0.826658  0.250000  0.750000  1.0
  Ga  Ga5  1  0.750000  0.819297  0.000000  1.0
  Ga  Ga6  1  0.326658  0.750000  0.750000  1.0
  Ga  Ga7  1  0.250000  0.319297  0.500000  1.0
  Ga  Ga8  1  0.673342  0.250000  0.250000  1.0
  Cl  Cl9  1  0.664604  0.557295  0.674960  1.0
  Cl  Cl10  1  0.505724  0.810154  0.459605  1.0
  Cl  Cl11  1  0.335396  0.442705  0.325040  1.0
  Cl  Cl12  1  0.664604  0.942705  0.825040  1.0
  Cl  Cl13  1  0.994276  0.689846  0.959605  1.0
  Cl  Cl14  1  0.335396  0.057295  0.174960  1.0
  Cl  Cl15  1  0.164604  0.442705  0.674960  1.0
  Cl  Cl16  1  0.005724  0.189846  0.459605  1.0
  Cl  Cl17  1  0.835396  0.557295  0.325040  1.0
  Cl  Cl18  1  0.994276  0.810154  0.540395  1.0
  Cl  Cl19  1  0.505724  0.689846  0.040395  1.0
  Cl  Cl20  1  0.164604  0.057295  0.825040  1.0
  Cl  Cl21  1  0.835396  0.942705  0.174960  1.0
  Cl  Cl22  1  0.005724  0.310154  0.040395  1.0
  Cl  Cl23  1  0.494276  0.189846  0.540395  1.0
  Cl  Cl24  1  0.494276  0.310154  0.959605  1.0
