# generated using pymatgen
data_ScTaO4
_symmetry_space_group_name_H-M   'P 1'
_cell_length_a   4.84802095
_cell_length_b   5.15524564
_cell_length_c   5.74907691
_cell_angle_alpha   90.00000000
_cell_angle_beta   90.00000000
_cell_angle_gamma   91.48556305
_symmetry_Int_Tables_number   1
_chemical_formula_structural   ScTaO4
_chemical_formula_sum   'Sc2 Ta2 O8'
_cell_volume   143.63688377
_cell_formula_units_Z   2
loop_
 _symmetry_equiv_pos_site_id
 _symmetry_equiv_pos_as_xyz
  1  'x, y, z'
loop_
 _atom_site_type_symbol
 _atom_site_label
 _atom_site_symmetry_multiplicity
 _atom_site_fract_x
 _atom_site_fract_y
 _atom_site_fract_z
 _atom_site_occupancy
  Sc  Sc1  1  0.500000  0.250000  0.322905  1.0
  Sc  Sc2  1  0.500000  0.750000  0.677095  1.0
  Ta  Ta3  1  0.000000  0.250000  0.822753  1.0
  Ta  Ta4  1  0.000000  0.750000  0.177247  1.0
  O  O5  1  0.217453  0.435240  0.107336  1.0
  O  O6  1  0.264865  0.405037  0.616489  1.0
  O  O7  1  0.782547  0.064760  0.107336  1.0
  O  O8  1  0.735135  0.594963  0.383511  1.0
  O  O9  1  0.735135  0.094963  0.616489  1.0
  O  O10  1  0.217453  0.935240  0.892664  1.0
  O  O11  1  0.264865  0.905037  0.383511  1.0
  O  O12  1  0.782547  0.564760  0.892664  1.0
