# generated using pymatgen
data_Na6ZnSn2
_symmetry_space_group_name_H-M   'P 1'
_cell_length_a   5.49987350
_cell_length_b   5.76296272
_cell_length_c   9.41209362
_cell_angle_alpha   96.91935564
_cell_angle_beta   90.00000000
_cell_angle_gamma   118.50100236
_symmetry_Int_Tables_number   1
_chemical_formula_structural   Na6ZnSn2
_chemical_formula_sum   'Na6 Zn1 Sn2'
_cell_volume   259.69258813
_cell_formula_units_Z   1
loop_
 _symmetry_equiv_pos_site_id
 _symmetry_equiv_pos_as_xyz
  1  'x, y, z'
loop_
 _atom_site_type_symbol
 _atom_site_label
 _atom_site_symmetry_multiplicity
 _atom_site_fract_x
 _atom_site_fract_y
 _atom_site_fract_z
 _atom_site_occupancy
  Na  Na1  1  0.470274  0.940548  0.275365  1.0
  Na  Na2  1  0.173531  0.347062  0.590885  1.0
  Na  Na3  1  0.292913  0.585826  0.929831  1.0
  Na  Na4  1  0.826469  0.652938  0.409115  1.0
  Na  Na5  1  0.529726  0.059452  0.724635  1.0
  Na  Na6  1  0.707087  0.414174  0.070169  1.0
  Zn  Zn7  1  0.000000  0.000000  0.000000  1.0
  Sn  Sn8  1  0.145613  0.291226  0.250632  1.0
  Sn  Sn9  1  0.854387  0.708774  0.749368  1.0
