# generated using pymatgen
data_Si3N4
_symmetry_space_group_name_H-M   'P 1'
_cell_length_a   7.41495184
_cell_length_b   7.41495187
_cell_length_c   6.25114329
_cell_angle_alpha   90.00000000
_cell_angle_beta   90.00000000
_cell_angle_gamma   119.99999985
_symmetry_Int_Tables_number   1
_chemical_formula_structural   Si3N4
_chemical_formula_sum   'Si12 N16'
_cell_volume   297.65059661
_cell_formula_units_Z   4
loop_
 _symmetry_equiv_pos_site_id
 _symmetry_equiv_pos_as_xyz
  1  'x, y, z'
loop_
 _atom_site_type_symbol
 _atom_site_label
 _atom_site_symmetry_multiplicity
 _atom_site_fract_x
 _atom_site_fract_y
 _atom_site_fract_z
 _atom_site_occupancy
  Si  Si1  1  0.109819  0.489440  0.751773  1.0
  Si  Si2  1  0.890181  0.379621  0.251773  1.0
  Si  Si3  1  0.510560  0.620379  0.751773  1.0
  Si  Si4  1  0.237238  0.172798  0.530938  1.0
  Si  Si5  1  0.762762  0.935560  0.030938  1.0
  Si  Si6  1  0.172798  0.237238  0.030938  1.0
  Si  Si7  1  0.620379  0.510560  0.251773  1.0
  Si  Si8  1  0.379621  0.890181  0.751773  1.0
  Si  Si9  1  0.489440  0.109819  0.251773  1.0
  Si  Si10  1  0.827202  0.064440  0.530938  1.0
  Si  Si11  1  0.935560  0.762762  0.530938  1.0
  Si  Si12  1  0.064440  0.827202  0.030938  1.0
  N  N13  1  0.620183  0.659690  0.020411  1.0
  N  N14  1  0.355298  0.303807  0.258416  1.0
  N  N15  1  0.659690  0.620183  0.520411  1.0
  N  N16  1  0.051491  0.696193  0.758416  1.0
  N  N17  1  0.340310  0.960492  0.020411  1.0
  N  N18  1  0.696193  0.051491  0.258416  1.0
  N  N19  1  0.000000  0.000000  0.384035  1.0
  N  N20  1  0.039508  0.379817  0.020411  1.0
  N  N21  1  0.303807  0.355298  0.758416  1.0
  N  N22  1  0.000000  0.000000  0.181349  1.0
  N  N23  1  0.379817  0.039508  0.520411  1.0
  N  N24  1  0.644702  0.948509  0.758416  1.0
  N  N25  1  0.960492  0.340310  0.520411  1.0
  N  N26  1  0.948509  0.644702  0.258416  1.0
  N  N27  1  0.000000  0.000000  0.884035  1.0
  N  N28  1  0.000000  0.000000  0.681349  1.0
