# generated using pymatgen
data_Cs2KCoF6
_symmetry_space_group_name_H-M   'P 1'
_cell_length_a   6.39044009
_cell_length_b   6.39044030
_cell_length_c   6.39044069
_cell_angle_alpha   60.00000319
_cell_angle_beta   60.00000213
_cell_angle_gamma   60.00000251
_symmetry_Int_Tables_number   1
_chemical_formula_structural   Cs2KCoF6
_chemical_formula_sum   'Cs2 K1 Co1 F6'
_cell_volume   184.53442081
_cell_formula_units_Z   1
loop_
 _symmetry_equiv_pos_site_id
 _symmetry_equiv_pos_as_xyz
  1  'x, y, z'
loop_
 _atom_site_type_symbol
 _atom_site_label
 _atom_site_symmetry_multiplicity
 _atom_site_fract_x
 _atom_site_fract_y
 _atom_site_fract_z
 _atom_site_occupancy
  Cs  Cs1  1  0.750000  0.750000  0.750000  1.0
  Cs  Cs2  1  0.250000  0.250000  0.250000  1.0
  K  K3  1  0.500000  0.500000  0.500000  1.0
  Co  Co4  1  0.000000  0.000000  0.000000  1.0
  F  F5  1  0.791005  0.208995  0.791005  1.0
  F  F6  1  0.208995  0.791005  0.791005  1.0
  F  F7  1  0.208995  0.208995  0.791005  1.0
  F  F8  1  0.791005  0.208995  0.208995  1.0
  F  F9  1  0.791005  0.791005  0.208995  1.0
  F  F10  1  0.208995  0.791005  0.208995  1.0
