# generated using pymatgen
data_CuI
_symmetry_space_group_name_H-M   'P 1'
_cell_length_a   4.15551104
_cell_length_b   4.15551128
_cell_length_c   7.43661648
_cell_angle_alpha   90.00000000
_cell_angle_beta   90.00000000
_cell_angle_gamma   119.99999811
_symmetry_Int_Tables_number   1
_chemical_formula_structural   CuI
_chemical_formula_sum   'Cu2 I2'
_cell_volume   111.21283983
_cell_formula_units_Z   2
loop_
 _symmetry_equiv_pos_site_id
 _symmetry_equiv_pos_as_xyz
  1  'x, y, z'
loop_
 _atom_site_type_symbol
 _atom_site_label
 _atom_site_symmetry_multiplicity
 _atom_site_fract_x
 _atom_site_fract_y
 _atom_site_fract_z
 _atom_site_occupancy
  Cu  Cu1  1  0.333333  0.666667  0.852429  1.0
  Cu  Cu2  1  0.000000  0.000000  0.664306  1.0
  I  I3  1  0.000000  0.000000  0.014115  1.0
  I  I4  1  0.333333  0.666667  0.501150  1.0
