# generated using pymatgen
data_Rb(CoSe)2
_symmetry_space_group_name_H-M   'P 1'
_cell_length_a   3.91742958
_cell_length_b   3.91742931
_cell_length_c   7.50594883
_cell_angle_alpha   105.12673983
_cell_angle_beta   105.12673715
_cell_angle_gamma   89.99999807
_symmetry_Int_Tables_number   1
_chemical_formula_structural   Rb(CoSe)2
_chemical_formula_sum   'Rb1 Co2 Se2'
_cell_volume   107.05718186
_cell_formula_units_Z   1
loop_
 _symmetry_equiv_pos_site_id
 _symmetry_equiv_pos_as_xyz
  1  'x, y, z'
loop_
 _atom_site_type_symbol
 _atom_site_label
 _atom_site_symmetry_multiplicity
 _atom_site_fract_x
 _atom_site_fract_y
 _atom_site_fract_z
 _atom_site_occupancy
  Rb  Rb1  1  0.000000  0.000000  0.000000  1.0
  Co  Co2  1  0.250000  0.750000  0.500000  1.0
  Co  Co3  1  0.750000  0.250000  0.500000  1.0
  Se  Se4  1  0.344085  0.344085  0.688171  1.0
  Se  Se5  1  0.655915  0.655915  0.311829  1.0
