# generated using pymatgen
data_VF3
_symmetry_space_group_name_H-M   'P 1'
_cell_length_a   5.49786612
_cell_length_b   5.49786619
_cell_length_c   5.49786628
_cell_angle_alpha   57.54017107
_cell_angle_beta   57.54017059
_cell_angle_gamma   57.54017153
_symmetry_Int_Tables_number   1
_chemical_formula_structural   VF3
_chemical_formula_sum   'V2 F6'
_cell_volume   110.86141194
_cell_formula_units_Z   2
loop_
 _symmetry_equiv_pos_site_id
 _symmetry_equiv_pos_as_xyz
  1  'x, y, z'
loop_
 _atom_site_type_symbol
 _atom_site_label
 _atom_site_symmetry_multiplicity
 _atom_site_fract_x
 _atom_site_fract_y
 _atom_site_fract_z
 _atom_site_occupancy
  V  V1  1  0.500000  0.500000  0.500000  1.0
  V  V2  1  0.000000  0.000000  0.000000  1.0
  F  F3  1  0.151741  0.750000  0.348259  1.0
  F  F4  1  0.750000  0.348259  0.151741  1.0
  F  F5  1  0.651741  0.848259  0.250000  1.0
  F  F6  1  0.250000  0.651741  0.848259  1.0
  F  F7  1  0.848259  0.250000  0.651741  1.0
  F  F8  1  0.348259  0.151741  0.750000  1.0
