# generated using pymatgen
data_HoSiRu2C
_symmetry_space_group_name_H-M   'P 1'
_cell_length_a   3.78971036
_cell_length_b   5.88932096
_cell_length_c   7.14907168
_cell_angle_alpha   90.00000000
_cell_angle_beta   90.00000000
_cell_angle_gamma   108.76843768
_symmetry_Int_Tables_number   1
_chemical_formula_structural   HoSiRu2C
_chemical_formula_sum   'Ho2 Si2 Ru4 C2'
_cell_volume   151.07456887
_cell_formula_units_Z   2
loop_
 _symmetry_equiv_pos_site_id
 _symmetry_equiv_pos_as_xyz
  1  'x, y, z'
loop_
 _atom_site_type_symbol
 _atom_site_label
 _atom_site_symmetry_multiplicity
 _atom_site_fract_x
 _atom_site_fract_y
 _atom_site_fract_z
 _atom_site_occupancy
  Ho  Ho1  1  0.953318  0.906636  0.250000  1.0
  Ho  Ho2  1  0.046682  0.093365  0.750000  1.0
  Si  Si3  1  0.231581  0.463161  0.250000  1.0
  Si  Si4  1  0.768419  0.536839  0.750000  1.0
  Ru  Ru5  1  0.663842  0.327685  0.443247  1.0
  Ru  Ru6  1  0.336158  0.672315  0.943247  1.0
  Ru  Ru7  1  0.336158  0.672315  0.556753  1.0
  Ru  Ru8  1  0.663842  0.327685  0.056753  1.0
  C  C9  1  0.500000  0.000000  0.500000  1.0
  C  C10  1  0.500000  0.000000  0.000000  1.0
