# generated using pymatgen
data_SnO
_symmetry_space_group_name_H-M   'P 1'
_cell_length_a   3.87118727
_cell_length_b   3.87121827
_cell_length_c   10.22195992
_cell_angle_alpha   90.00013408
_cell_angle_beta   89.99993931
_cell_angle_gamma   90.01850928
_symmetry_Int_Tables_number   1
_chemical_formula_structural   SnO
_chemical_formula_sum   'Sn4 O4'
_cell_volume   153.18843904
_cell_formula_units_Z   4
loop_
 _symmetry_equiv_pos_site_id
 _symmetry_equiv_pos_as_xyz
  1  'x, y, z'
loop_
 _atom_site_type_symbol
 _atom_site_label
 _atom_site_symmetry_multiplicity
 _atom_site_fract_x
 _atom_site_fract_y
 _atom_site_fract_z
 _atom_site_occupancy
  Sn  Sn1  1  0.486754  0.513246  0.735353  1.0
  Sn  Sn2  1  0.011654  0.988347  0.007663  1.0
  Sn  Sn3  1  0.513245  0.486756  0.235355  1.0
  Sn  Sn4  1  0.988346  0.011653  0.507648  1.0
  O  O5  1  0.012357  0.488054  0.121500  1.0
  O  O6  1  0.488057  0.012358  0.621490  1.0
  O  O7  1  0.987641  0.511943  0.621489  1.0
  O  O8  1  0.511947  0.987644  0.121502  1.0
