# generated using pymatgen
data_ScBrO
_symmetry_space_group_name_H-M   'P 1'
_cell_length_a   3.57636810
_cell_length_b   3.98447519
_cell_length_c   8.98387409
_cell_angle_alpha   90.00000000
_cell_angle_beta   90.00000000
_cell_angle_gamma   90.00000000
_symmetry_Int_Tables_number   1
_chemical_formula_structural   ScBrO
_chemical_formula_sum   'Sc2 Br2 O2'
_cell_volume   128.01975627
_cell_formula_units_Z   2
loop_
 _symmetry_equiv_pos_site_id
 _symmetry_equiv_pos_as_xyz
  1  'x, y, z'
loop_
 _atom_site_type_symbol
 _atom_site_label
 _atom_site_symmetry_multiplicity
 _atom_site_fract_x
 _atom_site_fract_y
 _atom_site_fract_z
 _atom_site_occupancy
  Sc  Sc1  1  0.250000  0.750000  0.603722  1.0
  Sc  Sc2  1  0.750000  0.250000  0.396277  1.0
  Br  Br3  1  0.750000  0.750000  0.825548  1.0
  Br  Br4  1  0.250000  0.250000  0.174453  1.0
  O  O5  1  0.750000  0.750000  0.469431  1.0
  O  O6  1  0.250000  0.250000  0.530569  1.0
