# generated using pymatgen
data_Lu(CoGe)2
_symmetry_space_group_name_H-M   'P 1'
_cell_length_a   3.92703603
_cell_length_b   3.92703603
_cell_length_c   5.73598822
_cell_angle_alpha   110.01800607
_cell_angle_beta   110.01800601
_cell_angle_gamma   90.00000368
_symmetry_Int_Tables_number   1
_chemical_formula_structural   Lu(CoGe)2
_chemical_formula_sum   'Lu1 Co2 Ge2'
_cell_volume   77.40168322
_cell_formula_units_Z   1
loop_
 _symmetry_equiv_pos_site_id
 _symmetry_equiv_pos_as_xyz
  1  'x, y, z'
loop_
 _atom_site_type_symbol
 _atom_site_label
 _atom_site_symmetry_multiplicity
 _atom_site_fract_x
 _atom_site_fract_y
 _atom_site_fract_z
 _atom_site_occupancy
  Lu  Lu1  1  0.000000  0.000000  0.000000  1.0
  Co  Co2  1  0.250000  0.750000  0.500000  1.0
  Co  Co3  1  0.750000  0.250000  0.500000  1.0
  Ge  Ge4  1  0.374005  0.374005  0.748010  1.0
  Ge  Ge5  1  0.625995  0.625995  0.251990  1.0
