# generated using pymatgen
data_YCu2Bi2(SeO2)2
_symmetry_space_group_name_H-M   'P 1'
_cell_length_a   3.90321163
_cell_length_b   3.90332166
_cell_length_c   12.78886162
_cell_angle_alpha   98.77798933
_cell_angle_beta   98.77774214
_cell_angle_gamma   90.00000468
_symmetry_Int_Tables_number   1
_chemical_formula_structural   YCu2Bi2(SeO2)2
_chemical_formula_sum   'Y1 Cu2 Bi2 Se2 O4'
_cell_volume   190.25293656
_cell_formula_units_Z   1
loop_
 _symmetry_equiv_pos_site_id
 _symmetry_equiv_pos_as_xyz
  1  'x, y, z'
loop_
 _atom_site_type_symbol
 _atom_site_label
 _atom_site_symmetry_multiplicity
 _atom_site_fract_x
 _atom_site_fract_y
 _atom_site_fract_z
 _atom_site_occupancy
  Y  Y1  1  0.000022  0.000022  0.000045  1.0
  Cu  Cu2  1  0.249983  0.749983  0.499965  1.0
  Cu  Cu3  1  0.749888  0.249888  0.499777  1.0
  Bi  Bi4  1  0.399064  0.399064  0.798127  1.0
  Bi  Bi5  1  0.600978  0.600978  0.201956  1.0
  Se  Se6  1  0.810540  0.810540  0.621080  1.0
  Se  Se7  1  0.189443  0.189443  0.378887  1.0
  O  O8  1  0.555751  0.055751  0.111501  1.0
  O  O9  1  0.944291  0.444291  0.888582  1.0
  O  O10  1  0.055750  0.555750  0.111499  1.0
  O  O11  1  0.444291  0.944291  0.888582  1.0
