# generated using pymatgen
data_Sm(CoP)2
_symmetry_space_group_name_H-M   'P 1'
_cell_length_a   3.87791122
_cell_length_b   3.87791173
_cell_length_c   5.52547867
_cell_angle_alpha   110.54309693
_cell_angle_beta   110.54309995
_cell_angle_gamma   90.00000397
_symmetry_Int_Tables_number   1
_chemical_formula_structural   Sm(CoP)2
_chemical_formula_sum   'Sm1 Co2 P2'
_cell_volume   72.13918043
_cell_formula_units_Z   1
loop_
 _symmetry_equiv_pos_site_id
 _symmetry_equiv_pos_as_xyz
  1  'x, y, z'
loop_
 _atom_site_type_symbol
 _atom_site_label
 _atom_site_symmetry_multiplicity
 _atom_site_fract_x
 _atom_site_fract_y
 _atom_site_fract_z
 _atom_site_occupancy
  Sm  Sm1  1  0.000000  0.000000  0.000000  1.0
  Co  Co2  1  0.250000  0.750000  0.500000  1.0
  Co  Co3  1  0.750000  0.250000  0.500000  1.0
  P  P4  1  0.369374  0.369374  0.738748  1.0
  P  P5  1  0.630626  0.630626  0.261252  1.0
