# generated using pymatgen
data_Bi2Pd
_symmetry_space_group_name_H-M   'P 1'
_cell_length_a   3.43012973
_cell_length_b   3.43012953
_cell_length_c   6.93506574
_cell_angle_alpha   104.31799337
_cell_angle_beta   104.31799261
_cell_angle_gamma   89.99999625
_symmetry_Int_Tables_number   1
_chemical_formula_structural   Bi2Pd
_chemical_formula_sum   'Bi2 Pd1'
_cell_volume   76.44345066
_cell_formula_units_Z   1
loop_
 _symmetry_equiv_pos_site_id
 _symmetry_equiv_pos_as_xyz
  1  'x, y, z'
loop_
 _atom_site_type_symbol
 _atom_site_label
 _atom_site_symmetry_multiplicity
 _atom_site_fract_x
 _atom_site_fract_y
 _atom_site_fract_z
 _atom_site_occupancy
  Bi  Bi1  1  0.635847  0.635847  0.271695  1.0
  Bi  Bi2  1  0.364153  0.364153  0.728305  1.0
  Pd  Pd3  1  0.000000  0.000000  0.000000  1.0
