# generated using pymatgen
data_MnO2
_symmetry_space_group_name_H-M   'P 1'
_cell_length_a   5.06886570
_cell_length_b   5.85310712
_cell_length_c   10.59014408
_cell_angle_alpha   90.00036319
_cell_angle_beta   90.00404101
_cell_angle_gamma   90.00004574
_symmetry_Int_Tables_number   1
_chemical_formula_structural   MnO2
_chemical_formula_sum   'Mn8 O16'
_cell_volume   314.19489527
_cell_formula_units_Z   8
loop_
 _symmetry_equiv_pos_site_id
 _symmetry_equiv_pos_as_xyz
  1  'x, y, z'
loop_
 _atom_site_type_symbol
 _atom_site_label
 _atom_site_symmetry_multiplicity
 _atom_site_fract_x
 _atom_site_fract_y
 _atom_site_fract_z
 _atom_site_occupancy
  Mn  Mn1  1  0.499906  0.750011  0.500045  1.0
  Mn  Mn2  1  0.499915  0.750000  0.999968  1.0
  Mn  Mn3  1  0.500081  0.249994  0.499989  1.0
  Mn  Mn4  1  0.500090  0.250001  0.000004  1.0
  Mn  Mn5  1  0.000004  0.499964  0.500011  1.0
  Mn  Mn6  1  0.999999  0.000001  0.999986  1.0
  Mn  Mn7  1  0.000000  0.000039  0.500012  1.0
  Mn  Mn8  1  0.000003  0.499997  0.999987  1.0
  O  O9  1  0.833116  0.750000  0.408957  1.0
  O  O10  1  0.833181  0.750000  0.091026  1.0
  O  O11  1  0.166830  0.250001  0.591047  1.0
  O  O12  1  0.166824  0.249997  0.908950  1.0
  O  O13  1  0.166399  0.750002  0.591046  1.0
  O  O14  1  0.166385  0.749997  0.908979  1.0
  O  O15  1  0.833626  0.249999  0.408995  1.0
  O  O16  1  0.833622  0.249998  0.090990  1.0
  O  O17  1  0.666728  0.499999  0.590968  1.0
  O  O18  1  0.666690  0.000010  0.909040  1.0
  O  O19  1  0.333281  0.999958  0.409063  1.0
  O  O20  1  0.333312  0.500014  0.090932  1.0
  O  O21  1  0.333281  0.500042  0.409063  1.0
  O  O22  1  0.333310  0.999985  0.090933  1.0
  O  O23  1  0.666727  0.000007  0.590969  1.0
  O  O24  1  0.666690  0.499984  0.909041  1.0
