# generated using pymatgen
data_HfZr
_symmetry_space_group_name_H-M   'P 1'
_cell_length_a   3.21583325
_cell_length_b   3.21584764
_cell_length_c   5.13435722
_cell_angle_alpha   89.99371069
_cell_angle_beta   90.00629160
_cell_angle_gamma   119.99514372
_symmetry_Int_Tables_number   1
_chemical_formula_structural   HfZr
_chemical_formula_sum   'Hf1 Zr1'
_cell_volume   45.98613876
_cell_formula_units_Z   1
loop_
 _symmetry_equiv_pos_site_id
 _symmetry_equiv_pos_as_xyz
  1  'x, y, z'
loop_
 _atom_site_type_symbol
 _atom_site_label
 _atom_site_symmetry_multiplicity
 _atom_site_fract_x
 _atom_site_fract_y
 _atom_site_fract_z
 _atom_site_occupancy
  Hf  Hf1  1  0.666670  0.333330  0.749999  1.0
  Zr  Zr2  1  0.333332  0.666670  0.250002  1.0
