# generated using pymatgen
data_ZrRh
_symmetry_space_group_name_H-M   'P 1'
_cell_length_a   4.49217589
_cell_length_b   5.35964086
_cell_length_c   6.15426530
_cell_angle_alpha   90.00000000
_cell_angle_beta   90.00000000
_cell_angle_gamma   90.00000000
_symmetry_Int_Tables_number   1
_chemical_formula_structural   ZrRh
_chemical_formula_sum   'Zr4 Rh4'
_cell_volume   148.17285740
_cell_formula_units_Z   4
loop_
 _symmetry_equiv_pos_site_id
 _symmetry_equiv_pos_as_xyz
  1  'x, y, z'
loop_
 _atom_site_type_symbol
 _atom_site_label
 _atom_site_symmetry_multiplicity
 _atom_site_fract_x
 _atom_site_fract_y
 _atom_site_fract_z
 _atom_site_occupancy
  Zr  Zr1  1  0.750000  0.862076  0.825938  1.0
  Zr  Zr2  1  0.250000  0.362076  0.674062  1.0
  Zr  Zr3  1  0.750000  0.637924  0.325938  1.0
  Zr  Zr4  1  0.250000  0.137924  0.174062  1.0
  Rh  Rh5  1  0.750000  0.165681  0.450634  1.0
  Rh  Rh6  1  0.250000  0.834319  0.549366  1.0
  Rh  Rh7  1  0.250000  0.665681  0.049366  1.0
  Rh  Rh8  1  0.750000  0.334319  0.950634  1.0
