# generated using pymatgen
data_Zr2Cu
_symmetry_space_group_name_H-M   'P 1'
_cell_length_a   3.23197638
_cell_length_b   3.23197638
_cell_length_c   6.05923895
_cell_angle_alpha   105.46788526
_cell_angle_beta   105.46788526
_cell_angle_gamma   90.00000005
_symmetry_Int_Tables_number   1
_chemical_formula_structural   Zr2Cu
_chemical_formula_sum   'Zr2 Cu1'
_cell_volume   58.61831261
_cell_formula_units_Z   1
loop_
 _symmetry_equiv_pos_site_id
 _symmetry_equiv_pos_as_xyz
  1  'x, y, z'
loop_
 _atom_site_type_symbol
 _atom_site_label
 _atom_site_symmetry_multiplicity
 _atom_site_fract_x
 _atom_site_fract_y
 _atom_site_fract_z
 _atom_site_occupancy
  Zr  Zr1  1  0.345730  0.345730  0.691459  1.0
  Zr  Zr2  1  0.654270  0.654270  0.308541  1.0
  Cu  Cu3  1  0.000000  0.000000  0.000000  1.0
