# generated using pymatgen
data_NaCoO2
_symmetry_space_group_name_H-M   'P 1'
_cell_length_a   2.91374258
_cell_length_b   2.91372384
_cell_length_c   10.55983792
_cell_angle_alpha   90.00000000
_cell_angle_beta   90.00000000
_cell_angle_gamma   120.00021271
_symmetry_Int_Tables_number   1
_chemical_formula_structural   NaCoO2
_chemical_formula_sum   'Na2 Co2 O4'
_cell_volume   77.64017778
_cell_formula_units_Z   2
loop_
 _symmetry_equiv_pos_site_id
 _symmetry_equiv_pos_as_xyz
  1  'x, y, z'
loop_
 _atom_site_type_symbol
 _atom_site_label
 _atom_site_symmetry_multiplicity
 _atom_site_fract_x
 _atom_site_fract_y
 _atom_site_fract_z
 _atom_site_occupancy
  Na  Na1  1  0.666685  0.333369  0.250000  1.0
  Na  Na2  1  0.333315  0.666631  0.750000  1.0
  Co  Co3  1  0.000000  0.000000  0.500000  1.0
  Co  Co4  1  0.000000  0.000000  0.000000  1.0
  O  O5  1  0.333336  0.666671  0.405393  1.0
  O  O6  1  0.666664  0.333329  0.594607  1.0
  O  O7  1  0.666664  0.333329  0.905393  1.0
  O  O8  1  0.333336  0.666671  0.094607  1.0
