# generated using pymatgen
data_Ag2S
_symmetry_space_group_name_H-M   'P 1'
_cell_length_a   4.23634526
_cell_length_b   4.23634545
_cell_length_c   8.97984090
_cell_angle_alpha   107.77086774
_cell_angle_beta   107.77086611
_cell_angle_gamma   110.67334698
_symmetry_Int_Tables_number   1
_chemical_formula_structural   Ag2S
_chemical_formula_sum   'Ag4 S2'
_cell_volume   127.23113906
_cell_formula_units_Z   2
loop_
 _symmetry_equiv_pos_site_id
 _symmetry_equiv_pos_as_xyz
  1  'x, y, z'
loop_
 _atom_site_type_symbol
 _atom_site_label
 _atom_site_symmetry_multiplicity
 _atom_site_fract_x
 _atom_site_fract_y
 _atom_site_fract_z
 _atom_site_occupancy
  Ag  Ag1  1  0.000000  0.500000  0.250000  1.0
  Ag  Ag2  1  0.500000  0.000000  0.750000  1.0
  Ag  Ag3  1  0.629892  0.370108  0.500000  1.0
  Ag  Ag4  1  0.370108  0.629892  0.000000  1.0
  S  S5  1  0.029710  0.970290  0.500000  1.0
  S  S6  1  0.970290  0.029710  0.000000  1.0
