# generated using pymatgen
data_Pa3Zn
_symmetry_space_group_name_H-M   'P 1'
_cell_length_a   4.50896647
_cell_length_b   4.50870654
_cell_length_c   4.50873995
_cell_angle_alpha   90.00445941
_cell_angle_beta   90.00457086
_cell_angle_gamma   89.99967918
_symmetry_Int_Tables_number   1
_chemical_formula_structural   Pa3Zn
_chemical_formula_sum   'Pa3 Zn1'
_cell_volume   91.66090893
_cell_formula_units_Z   1
loop_
 _symmetry_equiv_pos_site_id
 _symmetry_equiv_pos_as_xyz
  1  'x, y, z'
loop_
 _atom_site_type_symbol
 _atom_site_label
 _atom_site_symmetry_multiplicity
 _atom_site_fract_x
 _atom_site_fract_y
 _atom_site_fract_z
 _atom_site_occupancy
  Pa  Pa1  1  0.999998  0.499998  0.499998  1.0
  Pa  Pa2  1  0.500001  0.000002  0.499999  1.0
  Pa  Pa3  1  0.500002  0.500000  0.000003  1.0
  Zn  Zn4  1  0.999999  0.000000  0.000000  1.0
