# generated using pymatgen
data_Ac3Pr
_symmetry_space_group_name_H-M   'P 1'
_cell_length_a   7.89222231
_cell_length_b   7.89222255
_cell_length_c   6.36921742
_cell_angle_alpha   90.00000000
_cell_angle_beta   90.00000000
_cell_angle_gamma   119.99999477
_symmetry_Int_Tables_number   1
_chemical_formula_structural   Ac3Pr
_chemical_formula_sum   'Ac6 Pr2'
_cell_volume   343.57010068
_cell_formula_units_Z   2
loop_
 _symmetry_equiv_pos_site_id
 _symmetry_equiv_pos_as_xyz
  1  'x, y, z'
loop_
 _atom_site_type_symbol
 _atom_site_label
 _atom_site_symmetry_multiplicity
 _atom_site_fract_x
 _atom_site_fract_y
 _atom_site_fract_z
 _atom_site_occupancy
  Ac  Ac1  1  0.168163  0.336328  0.250001  1.0
  Ac  Ac2  1  0.663673  0.831836  0.250001  1.0
  Ac  Ac3  1  0.168162  0.831836  0.250001  1.0
  Ac  Ac4  1  0.831838  0.663674  0.750000  1.0
  Ac  Ac5  1  0.336326  0.168161  0.750000  1.0
  Ac  Ac6  1  0.831836  0.168161  0.750000  1.0
  Pr  Pr7  1  0.333333  0.666666  0.750000  1.0
  Pr  Pr8  1  0.666667  0.333333  0.250001  1.0
