# generated using pymatgen
data_K2LiAlF6
_symmetry_space_group_name_H-M   'P 1'
_cell_length_a   5.64176824
_cell_length_b   5.64176819
_cell_length_c   5.64176819
_cell_angle_alpha   60.00000031
_cell_angle_beta   60.00000040
_cell_angle_gamma   60.00000040
_symmetry_Int_Tables_number   1
_chemical_formula_structural   K2LiAlF6
_chemical_formula_sum   'K2 Li1 Al1 F6'
_cell_volume   126.97865516
_cell_formula_units_Z   1
loop_
 _symmetry_equiv_pos_site_id
 _symmetry_equiv_pos_as_xyz
  1  'x, y, z'
loop_
 _atom_site_type_symbol
 _atom_site_label
 _atom_site_symmetry_multiplicity
 _atom_site_fract_x
 _atom_site_fract_y
 _atom_site_fract_z
 _atom_site_occupancy
  K  K1  1  0.250000  0.250000  0.250000  1.0
  K  K2  1  0.750000  0.750000  0.750000  1.0
  Li  Li3  1  0.500000  0.500000  0.500000  1.0
  Al  Al4  1  0.000000  0.000000  0.000000  1.0
  F  F5  1  0.231218  0.768782  0.231218  1.0
  F  F6  1  0.768782  0.768782  0.231218  1.0
  F  F7  1  0.768782  0.231218  0.768782  1.0
  F  F8  1  0.768782  0.231218  0.231218  1.0
  F  F9  1  0.231218  0.768782  0.768782  1.0
  F  F10  1  0.231218  0.231218  0.768782  1.0
