# generated using pymatgen
data_CuN3
_symmetry_space_group_name_H-M   'P 1'
_cell_length_a   5.80008957
_cell_length_b   7.19883423
_cell_length_c   7.19883449
_cell_angle_alpha   80.66030164
_cell_angle_beta   66.24358568
_cell_angle_gamma   66.24358405
_symmetry_Int_Tables_number   1
_chemical_formula_structural   CuN3
_chemical_formula_sum   'Cu4 N12'
_cell_volume   251.79904683
_cell_formula_units_Z   4
loop_
 _symmetry_equiv_pos_site_id
 _symmetry_equiv_pos_as_xyz
  1  'x, y, z'
loop_
 _atom_site_type_symbol
 _atom_site_label
 _atom_site_symmetry_multiplicity
 _atom_site_fract_x
 _atom_site_fract_y
 _atom_site_fract_z
 _atom_site_occupancy
  Cu  Cu1  1  0.500000  0.500000  0.500000  1.0
  Cu  Cu2  1  0.000000  0.000000  0.500000  1.0
  Cu  Cu3  1  0.500000  0.500000  0.000000  1.0
  Cu  Cu4  1  0.500000  0.000000  0.000000  1.0
  N  N5  1  0.812285  0.452501  0.540420  1.0
  N  N6  1  0.352705  0.959580  0.452501  1.0
  N  N7  1  0.764786  0.540420  0.047499  1.0
  N  N8  1  0.805206  0.047499  0.959580  1.0
  N  N9  1  0.000000  0.000000  0.000000  1.0
  N  N10  1  0.000000  0.500000  0.000000  1.0
  N  N11  1  0.500000  0.000000  0.500000  1.0
  N  N12  1  0.000000  0.500000  0.500000  1.0
  N  N13  1  0.194794  0.952501  0.040420  1.0
  N  N14  1  0.235214  0.459580  0.952501  1.0
  N  N15  1  0.647295  0.040420  0.547499  1.0
  N  N16  1  0.187715  0.547499  0.459580  1.0
