# generated using pymatgen
data_K2Ca(CO3)2
_symmetry_space_group_name_H-M   'P 1'
_cell_length_a   6.94497929
_cell_length_b   6.94497929
_cell_length_c   6.94497929
_cell_angle_alpha   46.14323160
_cell_angle_beta   46.14323161
_cell_angle_gamma   46.14323158
_symmetry_Int_Tables_number   1
_chemical_formula_structural   K2Ca(CO3)2
_chemical_formula_sum   'K2 Ca1 C2 O6'
_cell_volume   158.91376060
_cell_formula_units_Z   1
loop_
 _symmetry_equiv_pos_site_id
 _symmetry_equiv_pos_as_xyz
  1  'x, y, z'
loop_
 _atom_site_type_symbol
 _atom_site_label
 _atom_site_symmetry_multiplicity
 _atom_site_fract_x
 _atom_site_fract_y
 _atom_site_fract_z
 _atom_site_occupancy
  K  K1  1  0.210022  0.210022  0.210022  1.0
  K  K2  1  0.789978  0.789978  0.789978  1.0
  Ca  Ca3  1  0.000000  0.000000  0.000000  1.0
  C  C4  1  0.589113  0.589113  0.589113  1.0
  C  C5  1  0.410887  0.410887  0.410887  1.0
  O  O6  1  0.687556  0.273371  0.273371  1.0
  O  O7  1  0.273371  0.273371  0.687556  1.0
  O  O8  1  0.273371  0.687556  0.273371  1.0
  O  O9  1  0.726629  0.312444  0.726629  1.0
  O  O10  1  0.726629  0.726629  0.312444  1.0
  O  O11  1  0.312444  0.726629  0.726629  1.0
