# generated using pymatgen
data_Mn11Pd21
_symmetry_space_group_name_H-M   'P 1'
_cell_length_a   8.09659520
_cell_length_b   8.09660237
_cell_length_c   7.43755435
_cell_angle_alpha   90.00009573
_cell_angle_beta   90.00004936
_cell_angle_gamma   89.99998783
_symmetry_Int_Tables_number   1
_chemical_formula_structural   Mn11Pd21
_chemical_formula_sum   'Mn11 Pd21'
_cell_volume   487.56822006
_cell_formula_units_Z   1
loop_
 _symmetry_equiv_pos_site_id
 _symmetry_equiv_pos_as_xyz
  1  'x, y, z'
loop_
 _atom_site_type_symbol
 _atom_site_label
 _atom_site_symmetry_multiplicity
 _atom_site_fract_x
 _atom_site_fract_y
 _atom_site_fract_z
 _atom_site_occupancy
  Mn  Mn1  1  0.000003  0.500000  0.500001  1.0
  Mn  Mn2  1  0.242956  0.242955  0.000000  1.0
  Mn  Mn3  1  0.250675  0.250678  0.500002  1.0
  Mn  Mn4  1  0.242959  0.757045  0.000002  1.0
  Mn  Mn5  1  0.250677  0.749321  0.499999  1.0
  Mn  Mn6  1  0.499996  0.999998  0.500001  1.0
  Mn  Mn7  1  0.500001  0.499999  0.000000  1.0
  Mn  Mn8  1  0.757043  0.242953  0.999999  1.0
  Mn  Mn9  1  0.749325  0.250677  0.500000  1.0
  Mn  Mn10  1  0.757044  0.757048  0.999999  1.0
  Mn  Mn11  1  0.749320  0.749321  0.500000  1.0
  Pd  Pd12  1  0.999999  0.000002  0.999999  1.0
  Pd  Pd13  1  0.000000  0.000001  0.499999  1.0
  Pd  Pd14  1  0.000001  0.253196  0.257031  1.0
  Pd  Pd15  1  0.000000  0.500001  0.000000  1.0
  Pd  Pd16  1  0.000000  0.253196  0.742969  1.0
  Pd  Pd17  1  0.000000  0.746803  0.257031  1.0
  Pd  Pd18  1  0.000000  0.746804  0.742969  1.0
  Pd  Pd19  1  0.253197  0.000000  0.257030  1.0
  Pd  Pd20  1  0.253197  0.000001  0.742969  1.0
  Pd  Pd21  1  0.250694  0.500000  0.247940  1.0
  Pd  Pd22  1  0.250694  0.500000  0.752059  1.0
  Pd  Pd23  1  0.500001  0.000001  0.000000  1.0
  Pd  Pd24  1  0.499999  0.250693  0.247939  1.0
  Pd  Pd25  1  0.500000  0.250693  0.752060  1.0
  Pd  Pd26  1  0.500000  0.500001  0.500001  1.0
  Pd  Pd27  1  0.499999  0.749307  0.247940  1.0
  Pd  Pd28  1  0.500000  0.749307  0.752061  1.0
  Pd  Pd29  1  0.746803  0.000000  0.257031  1.0
  Pd  Pd30  1  0.746803  0.000000  0.742969  1.0
  Pd  Pd31  1  0.749307  0.500000  0.247941  1.0
  Pd  Pd32  1  0.749307  0.500000  0.752059  1.0
