# generated using pymatgen
data_SrYMg6
_symmetry_space_group_name_H-M   'P 1'
_cell_length_a   6.75270652
_cell_length_b   9.54946497
_cell_length_c   4.84789583
_cell_angle_alpha   90.00000000
_cell_angle_beta   90.00000000
_cell_angle_gamma   134.99818379
_symmetry_Int_Tables_number   1
_chemical_formula_structural   SrYMg6
_chemical_formula_sum   'Sr1 Y1 Mg6'
_cell_volume   221.05938773
_cell_formula_units_Z   1
loop_
 _symmetry_equiv_pos_site_id
 _symmetry_equiv_pos_as_xyz
  1  'x, y, z'
loop_
 _atom_site_type_symbol
 _atom_site_label
 _atom_site_symmetry_multiplicity
 _atom_site_fract_x
 _atom_site_fract_y
 _atom_site_fract_z
 _atom_site_occupancy
  Sr  Sr1  1  0.248171  0.874085  0.250000  1.0
  Y  Y2  1  0.251081  0.375540  0.250000  1.0
  Mg  Mg3  1  0.750367  0.374045  0.250000  1.0
  Mg  Mg4  1  0.750367  0.876321  0.250000  1.0
  Mg  Mg5  1  0.250478  0.138368  0.750000  1.0
  Mg  Mg6  1  0.250478  0.612111  0.750000  1.0
  Mg  Mg7  1  0.775922  0.137961  0.750000  1.0
  Mg  Mg8  1  0.723137  0.611569  0.750000  1.0
