# generated using pymatgen
data_Sr2MgReO6
_symmetry_space_group_name_H-M   'P 1'
_cell_length_a   5.64253728
_cell_length_b   5.64253728
_cell_length_c   5.64253642
_cell_angle_alpha   120.00000502
_cell_angle_beta   120.00000503
_cell_angle_gamma   90.00000002
_symmetry_Int_Tables_number   1
_chemical_formula_structural   Sr2MgReO6
_chemical_formula_sum   'Sr2 Mg1 Re1 O6'
_cell_volume   127.03055084
_cell_formula_units_Z   1
loop_
 _symmetry_equiv_pos_site_id
 _symmetry_equiv_pos_as_xyz
  1  'x, y, z'
loop_
 _atom_site_type_symbol
 _atom_site_label
 _atom_site_symmetry_multiplicity
 _atom_site_fract_x
 _atom_site_fract_y
 _atom_site_fract_z
 _atom_site_occupancy
  Sr  Sr1  1  0.250000  0.750000  0.500000  1.0
  Sr  Sr2  1  0.750000  0.250000  0.500000  1.0
  Mg  Mg3  1  0.500000  0.500000  0.000000  1.0
  Re  Re4  1  0.000000  0.000000  0.000000  1.0
  O  O5  1  0.757609  0.757609  0.000000  1.0
  O  O6  1  0.242391  0.757609  0.000000  1.0
  O  O7  1  0.757609  0.242391  0.000000  1.0
  O  O8  1  0.242391  0.242391  0.000000  1.0
  O  O9  1  0.242425  0.242425  0.484850  1.0
  O  O10  1  0.757575  0.757575  0.515150  1.0
