# generated using pymatgen
data_CoSb2
_symmetry_space_group_name_H-M   'P 1'
_cell_length_a   6.41272690
_cell_length_b   6.57895500
_cell_length_c   6.53638483
_cell_angle_alpha   117.19775072
_cell_angle_beta   90.00000000
_cell_angle_gamma   90.00000000
_symmetry_Int_Tables_number   1
_chemical_formula_structural   CoSb2
_chemical_formula_sum   'Co4 Sb8'
_cell_volume   245.27379795
_cell_formula_units_Z   4
loop_
 _symmetry_equiv_pos_site_id
 _symmetry_equiv_pos_as_xyz
  1  'x, y, z'
loop_
 _atom_site_type_symbol
 _atom_site_label
 _atom_site_symmetry_multiplicity
 _atom_site_fract_x
 _atom_site_fract_y
 _atom_site_fract_z
 _atom_site_occupancy
  Co  Co1  1  0.999255  0.282658  0.270549  1.0
  Co  Co2  1  0.499256  0.217342  0.729451  1.0
  Co  Co3  1  0.000745  0.717342  0.729451  1.0
  Co  Co4  1  0.500745  0.782658  0.270549  1.0
  Sb  Sb5  1  0.355619  0.166382  0.348576  1.0
  Sb  Sb6  1  0.855619  0.333618  0.651424  1.0
  Sb  Sb7  1  0.644381  0.833618  0.651424  1.0
  Sb  Sb8  1  0.144381  0.666382  0.348576  1.0
  Sb  Sb9  1  0.640299  0.370194  0.147008  1.0
  Sb  Sb10  1  0.140299  0.129806  0.852992  1.0
  Sb  Sb11  1  0.359701  0.629806  0.852992  1.0
  Sb  Sb12  1  0.859701  0.870194  0.147008  1.0
