# generated using pymatgen
data_Co2Si
_symmetry_space_group_name_H-M   'P 1'
_cell_length_a   3.71223374
_cell_length_b   4.88516367
_cell_length_c   7.04589538
_cell_angle_alpha   90.00000000
_cell_angle_beta   90.00000000
_cell_angle_gamma   90.00000000
_symmetry_Int_Tables_number   1
_chemical_formula_structural   Co2Si
_chemical_formula_sum   'Co8 Si4'
_cell_volume   127.77639253
_cell_formula_units_Z   4
loop_
 _symmetry_equiv_pos_site_id
 _symmetry_equiv_pos_as_xyz
  1  'x, y, z'
loop_
 _atom_site_type_symbol
 _atom_site_label
 _atom_site_symmetry_multiplicity
 _atom_site_fract_x
 _atom_site_fract_y
 _atom_site_fract_z
 _atom_site_occupancy
  Co  Co1  1  0.750000  0.826401  0.564264  1.0
  Co  Co2  1  0.250000  0.173599  0.435736  1.0
  Co  Co3  1  0.750000  0.326401  0.935736  1.0
  Co  Co4  1  0.250000  0.673599  0.064264  1.0
  Co  Co5  1  0.250000  0.537086  0.717655  1.0
  Co  Co6  1  0.750000  0.462914  0.282345  1.0
  Co  Co7  1  0.250000  0.037086  0.782345  1.0
  Co  Co8  1  0.750000  0.962914  0.217655  1.0
  Si  Si9  1  0.250000  0.202854  0.106400  1.0
  Si  Si10  1  0.750000  0.797146  0.893600  1.0
  Si  Si11  1  0.250000  0.702854  0.393600  1.0
  Si  Si12  1  0.750000  0.297146  0.606400  1.0
