# generated using pymatgen
data_Ta
_symmetry_space_group_name_H-M   'P 1'
_cell_length_a   5.34679541
_cell_length_b   10.24759469
_cell_length_c   10.24759469
_cell_angle_alpha   90.00000000
_cell_angle_beta   90.00000000
_cell_angle_gamma   90.00000000
_symmetry_Int_Tables_number   1
_chemical_formula_structural   Ta
_chemical_formula_sum   Ta30
_cell_volume   561.48407934
_cell_formula_units_Z   30
loop_
 _symmetry_equiv_pos_site_id
 _symmetry_equiv_pos_as_xyz
  1  'x, y, z'
loop_
 _atom_site_type_symbol
 _atom_site_label
 _atom_site_symmetry_multiplicity
 _atom_site_fract_x
 _atom_site_fract_y
 _atom_site_fract_z
 _atom_site_occupancy
  Ta  Ta1  1  0.242766  0.500000  0.000000  1.0
  Ta  Ta2  1  0.757234  0.000000  0.500000  1.0
  Ta  Ta3  1  0.243334  0.761328  0.067379  1.0
  Ta  Ta4  1  0.756666  0.067379  0.238672  1.0
  Ta  Ta5  1  0.756666  0.932621  0.761328  1.0
  Ta  Ta6  1  0.243334  0.238672  0.932621  1.0
  Ta  Ta7  1  0.756666  0.261328  0.432621  1.0
  Ta  Ta8  1  0.756666  0.738672  0.567379  1.0
  Ta  Ta9  1  0.243334  0.432621  0.738672  1.0
  Ta  Ta10  1  0.243334  0.567379  0.261328  1.0
  Ta  Ta11  1  0.257104  0.034779  0.128883  1.0
  Ta  Ta12  1  0.742896  0.128883  0.965221  1.0
  Ta  Ta13  1  0.742896  0.871117  0.034779  1.0
  Ta  Ta14  1  0.257104  0.965221  0.871117  1.0
  Ta  Ta15  1  0.742896  0.534779  0.371117  1.0
  Ta  Ta16  1  0.742896  0.465221  0.628883  1.0
  Ta  Ta17  1  0.257104  0.371117  0.465221  1.0
  Ta  Ta18  1  0.257104  0.628883  0.534779  1.0
  Ta  Ta19  1  0.740514  0.604817  0.104817  1.0
  Ta  Ta20  1  0.259486  0.104817  0.395183  1.0
  Ta  Ta21  1  0.259486  0.895183  0.604817  1.0
  Ta  Ta22  1  0.740514  0.395183  0.895183  1.0
  Ta  Ta23  1  0.002362  0.818988  0.318988  1.0
  Ta  Ta24  1  0.997638  0.318988  0.181012  1.0
  Ta  Ta25  1  0.997638  0.681012  0.818988  1.0
  Ta  Ta26  1  0.002362  0.181012  0.681012  1.0
  Ta  Ta27  1  0.499279  0.318717  0.181283  1.0
  Ta  Ta28  1  0.500721  0.181283  0.681283  1.0
  Ta  Ta29  1  0.500721  0.818717  0.318717  1.0
  Ta  Ta30  1  0.499279  0.681283  0.818717  1.0
