# generated using pymatgen
data_Si5Pt6
_symmetry_space_group_name_H-M   'P 1'
_cell_length_a   3.53962062
_cell_length_b   6.24481258
_cell_length_c   15.60560748
_cell_angle_alpha   93.51828347
_cell_angle_beta   90.00000000
_cell_angle_gamma   90.00000000
_symmetry_Int_Tables_number   1
_chemical_formula_structural   Si5Pt6
_chemical_formula_sum   'Si10 Pt12'
_cell_volume   344.30038054
_cell_formula_units_Z   2
loop_
 _symmetry_equiv_pos_site_id
 _symmetry_equiv_pos_as_xyz
  1  'x, y, z'
loop_
 _atom_site_type_symbol
 _atom_site_label
 _atom_site_symmetry_multiplicity
 _atom_site_fract_x
 _atom_site_fract_y
 _atom_site_fract_z
 _atom_site_occupancy
  Si  Si1  1  0.750000  0.222620  0.427066  1.0
  Si  Si2  1  0.250000  0.777380  0.572934  1.0
  Si  Si3  1  0.250000  0.312875  0.279801  1.0
  Si  Si4  1  0.750000  0.687125  0.720199  1.0
  Si  Si5  1  0.250000  0.768596  0.334930  1.0
  Si  Si6  1  0.750000  0.231404  0.665070  1.0
  Si  Si7  1  0.250000  0.435400  0.064689  1.0
  Si  Si8  1  0.750000  0.564600  0.935311  1.0
  Si  Si9  1  0.750000  0.946291  0.119273  1.0
  Si  Si10  1  0.250000  0.053709  0.880727  1.0
  Pt  Pt11  1  0.750000  0.527578  0.577049  1.0
  Pt  Pt12  1  0.250000  0.472422  0.422951  1.0
  Pt  Pt13  1  0.750000  0.852036  0.447831  1.0
  Pt  Pt14  1  0.250000  0.147964  0.552169  1.0
  Pt  Pt15  1  0.750000  0.008917  0.281300  1.0
  Pt  Pt16  1  0.250000  0.991083  0.718700  1.0
  Pt  Pt17  1  0.750000  0.342723  0.174203  1.0
  Pt  Pt18  1  0.250000  0.657277  0.825797  1.0
  Pt  Pt19  1  0.250000  0.720471  0.178313  1.0
  Pt  Pt20  1  0.750000  0.279529  0.821687  1.0
  Pt  Pt21  1  0.250000  0.802259  0.001372  1.0
  Pt  Pt22  1  0.750000  0.197741  0.998628  1.0
