# generated using pymatgen
data_Mn5SiC
_symmetry_space_group_name_H-M   'P 1'
_cell_length_a   6.36045514
_cell_length_b   6.36045532
_cell_length_c   7.49734988
_cell_angle_alpha   90.00000000
_cell_angle_beta   90.00000000
_cell_angle_gamma   103.86529312
_symmetry_Int_Tables_number   1
_chemical_formula_structural   Mn5SiC
_chemical_formula_sum   'Mn20 Si4 C4'
_cell_volume   294.47036982
_cell_formula_units_Z   4
loop_
 _symmetry_equiv_pos_site_id
 _symmetry_equiv_pos_as_xyz
  1  'x, y, z'
loop_
 _atom_site_type_symbol
 _atom_site_label
 _atom_site_symmetry_multiplicity
 _atom_site_fract_x
 _atom_site_fract_y
 _atom_site_fract_z
 _atom_site_occupancy
  Mn  Mn1  1  0.125952  0.874108  0.438667  1.0
  Mn  Mn2  1  0.874048  0.125892  0.938667  1.0
  Mn  Mn3  1  0.125892  0.874048  0.938667  1.0
  Mn  Mn4  1  0.874108  0.125952  0.438667  1.0
  Mn  Mn5  1  0.299426  0.064054  0.688628  1.0
  Mn  Mn6  1  0.700574  0.935946  0.188628  1.0
  Mn  Mn7  1  0.935946  0.700574  0.188628  1.0
  Mn  Mn8  1  0.064054  0.299426  0.688628  1.0
  Mn  Mn9  1  0.484017  0.192656  0.003467  1.0
  Mn  Mn10  1  0.515983  0.807344  0.503467  1.0
  Mn  Mn11  1  0.807344  0.515983  0.503467  1.0
  Mn  Mn12  1  0.192656  0.484017  0.003467  1.0
  Mn  Mn13  1  0.865753  0.865753  0.688727  1.0
  Mn  Mn14  1  0.134247  0.134247  0.188727  1.0
  Mn  Mn15  1  0.532917  0.532917  0.188708  1.0
  Mn  Mn16  1  0.467083  0.467083  0.688708  1.0
  Mn  Mn17  1  0.192695  0.484030  0.373899  1.0
  Mn  Mn18  1  0.807305  0.515970  0.873899  1.0
  Mn  Mn19  1  0.515970  0.807305  0.873899  1.0
  Mn  Mn20  1  0.484030  0.192695  0.373899  1.0
  Si  Si21  1  0.823974  0.334396  0.188706  1.0
  Si  Si22  1  0.176026  0.665604  0.688706  1.0
  Si  Si23  1  0.665604  0.176026  0.688706  1.0
  Si  Si24  1  0.334396  0.823974  0.188706  1.0
  C  C25  1  0.806972  0.806972  0.404027  1.0
  C  C26  1  0.193028  0.193028  0.904027  1.0
  C  C27  1  0.806844  0.806844  0.973204  1.0
  C  C28  1  0.193156  0.193156  0.473204  1.0
