# generated using pymatgen
data_Pd3S
_symmetry_space_group_name_H-M   'P 1'
_cell_length_a   4.61511126
_cell_length_b   4.61511069
_cell_length_c   6.37443035
_cell_angle_alpha   90.00000000
_cell_angle_beta   90.00000000
_cell_angle_gamma   107.99141326
_symmetry_Int_Tables_number   1
_chemical_formula_structural   Pd3S
_chemical_formula_sum   'Pd6 S2'
_cell_volume   129.13178229
_cell_formula_units_Z   2
loop_
 _symmetry_equiv_pos_site_id
 _symmetry_equiv_pos_as_xyz
  1  'x, y, z'
loop_
 _atom_site_type_symbol
 _atom_site_label
 _atom_site_symmetry_multiplicity
 _atom_site_fract_x
 _atom_site_fract_y
 _atom_site_fract_z
 _atom_site_occupancy
  Pd  Pd1  1  0.149712  0.544023  0.750000  1.0
  Pd  Pd2  1  0.541522  0.152683  0.750000  1.0
  Pd  Pd3  1  0.998714  0.001286  0.000000  1.0
  Pd  Pd4  1  0.998714  0.001286  0.500000  1.0
  Pd  Pd5  1  0.455977  0.850288  0.250000  1.0
  Pd  Pd6  1  0.847317  0.458478  0.250000  1.0
  S  S7  1  0.309383  0.312340  0.250000  1.0
  S  S8  1  0.687660  0.690617  0.750000  1.0
