# generated using pymatgen
data_Dy(FeB)2
_symmetry_space_group_name_H-M   'P 1'
_cell_length_a   3.61402926
_cell_length_b   3.61402929
_cell_length_c   5.34646742
_cell_angle_alpha   109.75403474
_cell_angle_beta   109.75403490
_cell_angle_gamma   90.00000224
_symmetry_Int_Tables_number   1
_chemical_formula_structural   Dy(FeB)2
_chemical_formula_sum   'Dy1 Fe2 B2'
_cell_volume   61.33778200
_cell_formula_units_Z   1
loop_
 _symmetry_equiv_pos_site_id
 _symmetry_equiv_pos_as_xyz
  1  'x, y, z'
loop_
 _atom_site_type_symbol
 _atom_site_label
 _atom_site_symmetry_multiplicity
 _atom_site_fract_x
 _atom_site_fract_y
 _atom_site_fract_z
 _atom_site_occupancy
  Dy  Dy1  1  0.000000  0.000000  0.000000  1.0
  Fe  Fe2  1  0.250000  0.750000  0.500000  1.0
  Fe  Fe3  1  0.750000  0.250000  0.500000  1.0
  B  B4  1  0.340959  0.340959  0.681918  1.0
  B  B5  1  0.659041  0.659041  0.318082  1.0
