# generated using pymatgen
data_Al2O3
_symmetry_space_group_name_H-M   'P 1'
_cell_length_a   5.28746523
_cell_length_b   11.55338107
_cell_length_c   3.40005919
_cell_angle_alpha   90.00000000
_cell_angle_beta   110.17178239
_cell_angle_gamma   90.00000000
_symmetry_Int_Tables_number   1
_chemical_formula_structural   Al2O3
_chemical_formula_sum   'Al8 O12'
_cell_volume   194.96326227
_cell_formula_units_Z   4
loop_
 _symmetry_equiv_pos_site_id
 _symmetry_equiv_pos_as_xyz
  1  'x, y, z'
loop_
 _atom_site_type_symbol
 _atom_site_label
 _atom_site_symmetry_multiplicity
 _atom_site_fract_x
 _atom_site_fract_y
 _atom_site_fract_z
 _atom_site_occupancy
  Al  Al1  1  0.190683  0.837533  0.577505  1.0
  Al  Al2  1  0.213264  0.555473  0.374188  1.0
  Al  Al3  1  0.286736  0.055473  0.125812  1.0
  Al  Al4  1  0.309317  0.337533  0.922495  1.0
  Al  Al5  1  0.690683  0.662467  0.077505  1.0
  Al  Al6  1  0.713264  0.944527  0.874188  1.0
  Al  Al7  1  0.786736  0.444527  0.625812  1.0
  Al  Al8  1  0.809317  0.162467  0.422495  1.0
  O  O9  1  0.060959  0.885344  0.005173  1.0
  O  O10  1  0.041028  0.695674  0.379419  1.0
  O  O11  1  0.315899  0.001781  0.642428  1.0
  O  O12  1  0.184101  0.501781  0.857572  1.0
  O  O13  1  0.439041  0.385344  0.494827  1.0
  O  O14  1  0.458972  0.195674  0.120581  1.0
  O  O15  1  0.541028  0.804326  0.879419  1.0
  O  O16  1  0.560959  0.614656  0.505173  1.0
  O  O17  1  0.815899  0.498219  0.142428  1.0
  O  O18  1  0.684101  0.998219  0.357572  1.0
  O  O19  1  0.958972  0.304326  0.620581  1.0
  O  O20  1  0.939041  0.114656  0.994827  1.0
