# generated using pymatgen
data_DyAl2Ni
_symmetry_space_group_name_H-M   'P 1'
_cell_length_a   4.03461824
_cell_length_b   5.44774317
_cell_length_c   6.82186423
_cell_angle_alpha   90.00000000
_cell_angle_beta   90.00000000
_cell_angle_gamma   111.73422594
_symmetry_Int_Tables_number   1
_chemical_formula_structural   DyAl2Ni
_chemical_formula_sum   'Dy2 Al4 Ni2'
_cell_volume   139.28248299
_cell_formula_units_Z   2
loop_
 _symmetry_equiv_pos_site_id
 _symmetry_equiv_pos_as_xyz
  1  'x, y, z'
loop_
 _atom_site_type_symbol
 _atom_site_label
 _atom_site_symmetry_multiplicity
 _atom_site_fract_x
 _atom_site_fract_y
 _atom_site_fract_z
 _atom_site_occupancy
  Dy  Dy1  1  0.062391  0.124783  0.750000  1.0
  Dy  Dy2  1  0.937609  0.875217  0.250000  1.0
  Al  Al3  1  0.655358  0.310716  0.446217  1.0
  Al  Al4  1  0.344642  0.689284  0.946217  1.0
  Al  Al5  1  0.344642  0.689284  0.553783  1.0
  Al  Al6  1  0.655358  0.310716  0.053783  1.0
  Ni  Ni7  1  0.214397  0.428794  0.250000  1.0
  Ni  Ni8  1  0.785603  0.571206  0.750000  1.0
