# generated using pymatgen
data_Cu2GeTe3
_symmetry_space_group_name_H-M   'P 1'
_cell_length_a   8.52149852
_cell_length_b   12.74131499
_cell_length_c   7.35778316
_cell_angle_alpha   29.97550917
_cell_angle_beta   54.81688595
_cell_angle_gamma   60.01861367
_symmetry_Int_Tables_number   1
_chemical_formula_structural   Cu2GeTe3
_chemical_formula_sum   'Cu4 Ge2 Te6'
_cell_volume   326.22285915
_cell_formula_units_Z   2
loop_
 _symmetry_equiv_pos_site_id
 _symmetry_equiv_pos_as_xyz
  1  'x, y, z'
loop_
 _atom_site_type_symbol
 _atom_site_label
 _atom_site_symmetry_multiplicity
 _atom_site_fract_x
 _atom_site_fract_y
 _atom_site_fract_z
 _atom_site_occupancy
  Cu  Cu1  1  0.994617  0.997465  0.001482  1.0
  Cu  Cu2  1  0.997726  0.665820  0.005141  1.0
  Cu  Cu3  1  0.496418  0.329792  0.001883  1.0
  Cu  Cu4  1  0.494564  0.664179  0.012225  1.0
  Ge  Ge5  1  0.008901  0.338027  0.992377  1.0
  Ge  Ge6  1  0.507860  0.992049  0.011163  1.0
  Te  Te7  1  0.126278  0.332252  0.264149  1.0
  Te  Te8  1  0.128691  0.673065  0.231888  1.0
  Te  Te9  1  0.115679  0.985830  0.267861  1.0
  Te  Te10  1  0.616927  0.344330  0.230563  1.0
  Te  Te11  1  0.629406  0.655872  0.258491  1.0
  Te  Te12  1  0.625291  0.994092  0.271314  1.0
