# generated using pymatgen
data_NdC2
_symmetry_space_group_name_H-M   'P 1'
_cell_length_a   3.84241734
_cell_length_b   3.84241735
_cell_length_c   4.22449368
_cell_angle_alpha   117.05067989
_cell_angle_beta   117.05067993
_cell_angle_gamma   90.00000008
_symmetry_Int_Tables_number   1
_chemical_formula_structural   NdC2
_chemical_formula_sum   'Nd1 C2'
_cell_volume   47.75989432
_cell_formula_units_Z   1
loop_
 _symmetry_equiv_pos_site_id
 _symmetry_equiv_pos_as_xyz
  1  'x, y, z'
loop_
 _atom_site_type_symbol
 _atom_site_label
 _atom_site_symmetry_multiplicity
 _atom_site_fract_x
 _atom_site_fract_y
 _atom_site_fract_z
 _atom_site_occupancy
  Nd  Nd1  1  0.000000  0.000000  0.000000  1.0
  C  C2  1  0.399681  0.399681  0.799362  1.0
  C  C3  1  0.600319  0.600319  0.200638  1.0
