# generated using pymatgen
data_SrTaNO2
_symmetry_space_group_name_H-M   'P 1'
_cell_length_a   5.73092103
_cell_length_b   8.17504128
_cell_length_c   5.72167996
_cell_angle_alpha   90.00000000
_cell_angle_beta   90.00000000
_cell_angle_gamma   90.05467555
_symmetry_Int_Tables_number   1
_chemical_formula_structural   SrTaNO2
_chemical_formula_sum   'Sr4 Ta4 N4 O8'
_cell_volume   268.06353642
_cell_formula_units_Z   4
loop_
 _symmetry_equiv_pos_site_id
 _symmetry_equiv_pos_as_xyz
  1  'x, y, z'
loop_
 _atom_site_type_symbol
 _atom_site_label
 _atom_site_symmetry_multiplicity
 _atom_site_fract_x
 _atom_site_fract_y
 _atom_site_fract_z
 _atom_site_occupancy
  Sr  Sr1  1  0.993008  0.762604  0.012195  1.0
  Sr  Sr2  1  0.491399  0.762423  0.514677  1.0
  Sr  Sr3  1  0.493008  0.262604  0.487805  1.0
  Sr  Sr4  1  0.991399  0.262423  0.985323  1.0
  Ta  Ta5  1  0.999026  0.002036  0.504400  1.0
  Ta  Ta6  1  0.983781  0.518656  0.507455  1.0
  Ta  Ta7  1  0.483781  0.018656  0.992545  1.0
  Ta  Ta8  1  0.499026  0.502036  0.995600  1.0
  N  N9  1  0.227814  0.999022  0.773162  1.0
  N  N10  1  0.465516  0.266483  0.008448  1.0
  N  N11  1  0.727814  0.499022  0.726838  1.0
  N  N12  1  0.965516  0.766483  0.491552  1.0
  O  O13  1  0.046447  0.269503  0.497717  1.0
  O  O14  1  0.226134  0.538600  0.778547  1.0
  O  O15  1  0.281438  0.995970  0.277040  1.0
  O  O16  1  0.285437  0.538703  0.279561  1.0
  O  O17  1  0.546447  0.769503  0.002283  1.0
  O  O18  1  0.726134  0.038600  0.721453  1.0
  O  O19  1  0.785437  0.038703  0.220439  1.0
  O  O20  1  0.781438  0.495970  0.222960  1.0
