# generated using pymatgen
data_W3C
_symmetry_space_group_name_H-M   'P 1'
_cell_length_a   5.17494250
_cell_length_b   5.17494250
_cell_length_c   5.17494250
_cell_angle_alpha   140.13355684
_cell_angle_beta   140.13355684
_cell_angle_gamma   57.65056770
_symmetry_Int_Tables_number   1
_chemical_formula_structural   W3C
_chemical_formula_sum   'W3 C1'
_cell_volume   56.44743469
_cell_formula_units_Z   1
loop_
 _symmetry_equiv_pos_site_id
 _symmetry_equiv_pos_as_xyz
  1  'x, y, z'
loop_
 _atom_site_type_symbol
 _atom_site_label
 _atom_site_symmetry_multiplicity
 _atom_site_fract_x
 _atom_site_fract_y
 _atom_site_fract_z
 _atom_site_occupancy
  W  W1  1  0.749998  0.250000  0.499999  1.0
  W  W2  1  0.250000  0.749998  0.499999  1.0
  W  W3  1  0.500000  0.500000  0.000000  1.0
  C  C4  1  0.000000  0.000000  0.000000  1.0
