# generated using pymatgen
data_WN2
_symmetry_space_group_name_H-M   'P 1'
_cell_length_a   4.85049939
_cell_length_b   4.85049483
_cell_length_c   2.96451241
_cell_angle_alpha   90.00000402
_cell_angle_beta   90.00002332
_cell_angle_gamma   89.99979482
_symmetry_Int_Tables_number   1
_chemical_formula_structural   WN2
_chemical_formula_sum   'W2 N4'
_cell_volume   69.74703868
_cell_formula_units_Z   2
loop_
 _symmetry_equiv_pos_site_id
 _symmetry_equiv_pos_as_xyz
  1  'x, y, z'
loop_
 _atom_site_type_symbol
 _atom_site_label
 _atom_site_symmetry_multiplicity
 _atom_site_fract_x
 _atom_site_fract_y
 _atom_site_fract_z
 _atom_site_occupancy
  W  W1  1  0.999998  0.999999  0.000000  1.0
  W  W2  1  0.500001  0.500000  0.500000  1.0
  N  N3  1  0.302671  0.302671  0.000000  1.0
  N  N4  1  0.697330  0.697330  0.000000  1.0
  N  N5  1  0.802671  0.197331  0.500000  1.0
  N  N6  1  0.197330  0.802671  0.500000  1.0
