# generated using pymatgen
data_Pm2CuRu
_symmetry_space_group_name_H-M   'P 1'
_cell_length_a   4.93848811
_cell_length_b   4.93847948
_cell_length_c   4.93849935
_cell_angle_alpha   59.99971250
_cell_angle_beta   59.99966779
_cell_angle_gamma   59.99971884
_symmetry_Int_Tables_number   1
_chemical_formula_structural   Pm2CuRu
_chemical_formula_sum   'Pm2 Cu1 Ru1'
_cell_volume   85.16561999
_cell_formula_units_Z   1
loop_
 _symmetry_equiv_pos_site_id
 _symmetry_equiv_pos_as_xyz
  1  'x, y, z'
loop_
 _atom_site_type_symbol
 _atom_site_label
 _atom_site_symmetry_multiplicity
 _atom_site_fract_x
 _atom_site_fract_y
 _atom_site_fract_z
 _atom_site_occupancy
  Pm  Pm1  1  0.000000  0.000000  0.999999  1.0
  Pm  Pm2  1  0.500000  0.500000  0.500000  1.0
  Cu  Cu3  1  0.249999  0.249999  0.250000  1.0
  Ru  Ru4  1  0.749999  0.749999  0.749999  1.0
