# generated using pymatgen
data_CaMgNi4
_symmetry_space_group_name_H-M   'P 1'
_cell_length_a   4.94692532
_cell_length_b   4.94692532
_cell_length_c   4.94692532
_cell_angle_alpha   60.00000000
_cell_angle_beta   60.00000001
_cell_angle_gamma   60.00000003
_symmetry_Int_Tables_number   1
_chemical_formula_structural   CaMgNi4
_chemical_formula_sum   'Ca1 Mg1 Ni4'
_cell_volume   85.60340996
_cell_formula_units_Z   1
loop_
 _symmetry_equiv_pos_site_id
 _symmetry_equiv_pos_as_xyz
  1  'x, y, z'
loop_
 _atom_site_type_symbol
 _atom_site_label
 _atom_site_symmetry_multiplicity
 _atom_site_fract_x
 _atom_site_fract_y
 _atom_site_fract_z
 _atom_site_occupancy
  Ca  Ca1  1  0.000000  0.000000  0.000000  1.0
  Mg  Mg2  1  0.250000  0.250000  0.250000  1.0
  Ni  Ni3  1  0.624298  0.624298  0.624298  1.0
  Ni  Ni4  1  0.624298  0.624298  0.127105  1.0
  Ni  Ni5  1  0.127105  0.624298  0.624298  1.0
  Ni  Ni6  1  0.624298  0.127105  0.624298  1.0
