# generated using pymatgen
data_ZrMn2
_symmetry_space_group_name_H-M   'P 1'
_cell_length_a   4.97493241
_cell_length_b   4.97493241
_cell_length_c   4.97493241
_cell_angle_alpha   59.99999993
_cell_angle_beta   59.99999995
_cell_angle_gamma   59.99999998
_symmetry_Int_Tables_number   1
_chemical_formula_structural   ZrMn2
_chemical_formula_sum   'Zr2 Mn4'
_cell_volume   87.06559172
_cell_formula_units_Z   2
loop_
 _symmetry_equiv_pos_site_id
 _symmetry_equiv_pos_as_xyz
  1  'x, y, z'
loop_
 _atom_site_type_symbol
 _atom_site_label
 _atom_site_symmetry_multiplicity
 _atom_site_fract_x
 _atom_site_fract_y
 _atom_site_fract_z
 _atom_site_occupancy
  Zr  Zr1  1  0.375000  0.375000  0.375000  1.0
  Zr  Zr2  1  0.625000  0.625000  0.625000  1.0
  Mn  Mn3  1  0.000000  0.000000  0.000000  1.0
  Mn  Mn4  1  0.000000  0.000000  0.500000  1.0
  Mn  Mn5  1  0.500000  0.000000  0.000000  1.0
  Mn  Mn6  1  0.000000  0.500000  0.000000  1.0
