# generated using pymatgen
data_HfInNi2
_symmetry_space_group_name_H-M   'P 1'
_cell_length_a   4.38144750
_cell_length_b   4.38221235
_cell_length_c   4.38119281
_cell_angle_alpha   59.97481793
_cell_angle_beta   59.99104732
_cell_angle_gamma   59.99085327
_symmetry_Int_Tables_number   1
_chemical_formula_structural   HfInNi2
_chemical_formula_sum   'Hf1 In1 Ni2'
_cell_volume   59.46292691
_cell_formula_units_Z   1
loop_
 _symmetry_equiv_pos_site_id
 _symmetry_equiv_pos_as_xyz
  1  'x, y, z'
loop_
 _atom_site_type_symbol
 _atom_site_label
 _atom_site_symmetry_multiplicity
 _atom_site_fract_x
 _atom_site_fract_y
 _atom_site_fract_z
 _atom_site_occupancy
  Hf  Hf1  1  0.499979  0.500003  0.500007  1.0
  In  In2  1  0.000015  0.000010  0.999994  1.0
  Ni  Ni3  1  0.749997  0.750006  0.750006  1.0
  Ni  Ni4  1  0.250009  0.249981  0.249993  1.0
