# generated using pymatgen
data_SmInRh2
_symmetry_space_group_name_H-M   'P 1'
_cell_length_a   4.76553010
_cell_length_b   4.76451371
_cell_length_c   4.76436889
_cell_angle_alpha   59.99663220
_cell_angle_beta   59.99778409
_cell_angle_gamma   59.98756126
_symmetry_Int_Tables_number   1
_chemical_formula_structural   SmInRh2
_chemical_formula_sum   'Sm1 In1 Rh2'
_cell_volume   76.48231287
_cell_formula_units_Z   1
loop_
 _symmetry_equiv_pos_site_id
 _symmetry_equiv_pos_as_xyz
  1  'x, y, z'
loop_
 _atom_site_type_symbol
 _atom_site_label
 _atom_site_symmetry_multiplicity
 _atom_site_fract_x
 _atom_site_fract_y
 _atom_site_fract_z
 _atom_site_occupancy
  Sm  Sm1  1  0.749967  0.750009  0.750014  1.0
  In  In2  1  0.250024  0.249986  0.249999  1.0
  Rh  Rh3  1  0.000021  0.000012  0.999974  1.0
  Rh  Rh4  1  0.499985  0.499991  0.500011  1.0
