# generated using pymatgen
data_Ni3I
_symmetry_space_group_name_H-M   'P 1'
_cell_length_a   4.68106761
_cell_length_b   4.68106761
_cell_length_c   4.68106761
_cell_angle_alpha   132.55266995
_cell_angle_beta   132.55266995
_cell_angle_gamma   69.35753297
_symmetry_Int_Tables_number   1
_chemical_formula_structural   Ni3I
_chemical_formula_sum   'Ni3 I1'
_cell_volume   54.61477117
_cell_formula_units_Z   1
loop_
 _symmetry_equiv_pos_site_id
 _symmetry_equiv_pos_as_xyz
  1  'x, y, z'
loop_
 _atom_site_type_symbol
 _atom_site_label
 _atom_site_symmetry_multiplicity
 _atom_site_fract_x
 _atom_site_fract_y
 _atom_site_fract_z
 _atom_site_occupancy
  Ni  Ni1  1  0.750001  0.250000  0.500001  1.0
  Ni  Ni2  1  0.250000  0.750001  0.500001  1.0
  Ni  Ni3  1  0.500000  0.500000  0.000000  1.0
  I  I4  1  0.000000  0.000000  0.000000  1.0
