# generated using pymatgen
data_PmDyIn2
_symmetry_space_group_name_H-M   'P 1'
_cell_length_a   5.38250616
_cell_length_b   5.38250616
_cell_length_c   5.38250616
_cell_angle_alpha   60.08145578
_cell_angle_beta   60.08145578
_cell_angle_gamma   60.08145578
_symmetry_Int_Tables_number   1
_chemical_formula_structural   PmDyIn2
_chemical_formula_sum   'Pm1 Dy1 In2'
_cell_volume   110.46876904
_cell_formula_units_Z   1
loop_
 _symmetry_equiv_pos_site_id
 _symmetry_equiv_pos_as_xyz
  1  'x, y, z'
loop_
 _atom_site_type_symbol
 _atom_site_label
 _atom_site_symmetry_multiplicity
 _atom_site_fract_x
 _atom_site_fract_y
 _atom_site_fract_z
 _atom_site_occupancy
  Pm  Pm1  1  0.749999  0.749999  0.749999  1.0
  Dy  Dy2  1  0.249999  0.249999  0.249999  1.0
  In  In3  1  0.000001  0.000001  0.000001  1.0
  In  In4  1  0.500001  0.500001  0.500001  1.0
