# generated using pymatgen
data_Na4Ti5O12
_symmetry_space_group_name_H-M   'P 1'
_cell_length_a   5.37207226
_cell_length_b   5.37207227
_cell_length_c   9.65302954
_cell_angle_alpha   90.00000000
_cell_angle_beta   90.00000000
_cell_angle_gamma   119.99999749
_symmetry_Int_Tables_number   1
_chemical_formula_structural   Na4Ti5O12
_chemical_formula_sum   'Na4 Ti5 O12'
_cell_volume   241.25591513
_cell_formula_units_Z   1
loop_
 _symmetry_equiv_pos_site_id
 _symmetry_equiv_pos_as_xyz
  1  'x, y, z'
loop_
 _atom_site_type_symbol
 _atom_site_label
 _atom_site_symmetry_multiplicity
 _atom_site_fract_x
 _atom_site_fract_y
 _atom_site_fract_z
 _atom_site_occupancy
  Na  Na1  1  0.666667  0.333334  0.391008  1.0
  Na  Na2  1  0.333333  0.666666  0.590411  1.0
  Na  Na3  1  0.000000  0.000000  0.802401  1.0
  Na  Na4  1  0.000000  0.000000  0.177693  1.0
  Ti  Ti5  1  0.333333  0.666666  0.963692  1.0
  Ti  Ti6  1  0.000000  0.000000  0.491160  1.0
  Ti  Ti7  1  0.333333  0.666666  0.274120  1.0
  Ti  Ti8  1  0.666667  0.333334  0.020312  1.0
  Ti  Ti9  1  0.666667  0.333334  0.708988  1.0
  O  O10  1  0.429544  0.015801  0.870399  1.0
  O  O11  1  0.586258  0.570456  0.870399  1.0
  O  O12  1  0.984199  0.413742  0.870399  1.0
  O  O13  1  0.767656  0.100304  0.612947  1.0
  O  O14  1  0.899696  0.667352  0.612947  1.0
  O  O15  1  0.015563  0.583527  0.114658  1.0
  O  O16  1  0.667583  0.768672  0.370734  1.0
  O  O17  1  0.101090  0.332417  0.370734  1.0
  O  O18  1  0.567964  0.984437  0.114658  1.0
  O  O19  1  0.332648  0.232344  0.612947  1.0
  O  O20  1  0.416473  0.432036  0.114658  1.0
  O  O21  1  0.231328  0.898910  0.370734  1.0
