# generated using pymatgen
data_Li2SnN2
_symmetry_space_group_name_H-M   'P 1'
_cell_length_a   3.29623000
_cell_length_b   3.29623454
_cell_length_c   5.50581000
_cell_angle_alpha   90.00000241
_cell_angle_beta   90.00004860
_cell_angle_gamma   120.00002938
_symmetry_Int_Tables_number   1
_chemical_formula_structural   Li2SnN2
_chemical_formula_sum   'Li2 Sn1 N2'
_cell_volume   51.80686791
_cell_formula_units_Z   1
loop_
 _symmetry_equiv_pos_site_id
 _symmetry_equiv_pos_as_xyz
  1  'x, y, z'
loop_
 _atom_site_type_symbol
 _atom_site_label
 _atom_site_symmetry_multiplicity
 _atom_site_fract_x
 _atom_site_fract_y
 _atom_site_fract_z
 _atom_site_occupancy
  Li  Li1  1  0.666667  0.333333  0.378477  1.0
  Li  Li2  1  0.333333  0.666667  0.621523  1.0
  Sn  Sn3  1  0.000000  0.000000  0.000000  1.0
  N  N4  1  0.666668  0.333334  0.773544  1.0
  N  N5  1  0.333332  0.666666  0.226456  1.0
