# generated using pymatgen
data_CoO
_symmetry_space_group_name_H-M   'P 1'
_cell_length_a   3.26598116
_cell_length_b   5.27626629
_cell_length_c   3.26598074
_cell_angle_alpha   90.00000000
_cell_angle_beta   119.99999578
_cell_angle_gamma   90.00000000
_symmetry_Int_Tables_number   1
_chemical_formula_structural   CoO
_chemical_formula_sum   'Co2 O2'
_cell_volume   48.73990189
_cell_formula_units_Z   2
loop_
 _symmetry_equiv_pos_site_id
 _symmetry_equiv_pos_as_xyz
  1  'x, y, z'
loop_
 _atom_site_type_symbol
 _atom_site_label
 _atom_site_symmetry_multiplicity
 _atom_site_fract_x
 _atom_site_fract_y
 _atom_site_fract_z
 _atom_site_occupancy
  Co  Co1  1  0.666667  0.000803  0.333333  1.0
  Co  Co2  1  0.333333  0.500810  0.666667  1.0
  O  O3  1  0.666667  0.374187  0.333333  1.0
  O  O4  1  0.333333  0.874200  0.666667  1.0
