# generated using pymatgen
data_MnHO2
_symmetry_space_group_name_H-M   'P 1'
_cell_length_a   4.49643512
_cell_length_b   5.36298266
_cell_length_c   2.94801488
_cell_angle_alpha   90.00000000
_cell_angle_beta   90.00000000
_cell_angle_gamma   90.00000000
_symmetry_Int_Tables_number   1
_chemical_formula_structural   MnHO2
_chemical_formula_sum   'Mn2 H2 O4'
_cell_volume   71.08932578
_cell_formula_units_Z   2
loop_
 _symmetry_equiv_pos_site_id
 _symmetry_equiv_pos_as_xyz
  1  'x, y, z'
loop_
 _atom_site_type_symbol
 _atom_site_label
 _atom_site_symmetry_multiplicity
 _atom_site_fract_x
 _atom_site_fract_y
 _atom_site_fract_z
 _atom_site_occupancy
  Mn  Mn1  1  0.477653  0.511843  0.500000  1.0
  Mn  Mn2  1  0.022347  0.011843  0.000000  1.0
  H  H3  1  0.561440  0.028380  0.500000  1.0
  H  H4  1  0.938560  0.528380  0.000000  1.0
  O  O5  1  0.754072  0.132276  0.500000  1.0
  O  O6  1  0.259021  0.881381  0.500000  1.0
  O  O7  1  0.240979  0.381381  0.000000  1.0
  O  O8  1  0.745928  0.632276  0.000000  1.0
