# generated using pymatgen
data_AlPO4
_symmetry_space_group_name_H-M   'P 1'
_cell_length_a   5.17722413
_cell_length_b   5.17722414
_cell_length_c   5.17722414
_cell_angle_alpha   87.93822639
_cell_angle_beta   121.19741963
_cell_angle_gamma   121.19741958
_symmetry_Int_Tables_number   1
_chemical_formula_structural   AlPO4
_chemical_formula_sum   'Al1 P1 O4'
_cell_volume   96.28050571
_cell_formula_units_Z   1
loop_
 _symmetry_equiv_pos_site_id
 _symmetry_equiv_pos_as_xyz
  1  'x, y, z'
loop_
 _atom_site_type_symbol
 _atom_site_label
 _atom_site_symmetry_multiplicity
 _atom_site_fract_x
 _atom_site_fract_y
 _atom_site_fract_z
 _atom_site_occupancy
  Al  Al1  1  0.000000  0.000000  0.000000  1.0
  P  P2  1  0.500000  0.250000  0.750000  1.0
  O  O3  1  0.638528  0.040096  0.863338  1.0
  O  O4  1  0.176758  0.136662  0.775191  1.0
  O  O5  1  0.361472  0.224809  0.401567  1.0
  O  O6  1  0.823242  0.598433  0.959904  1.0
