# generated using pymatgen
data_Sm2AlNO3
_symmetry_space_group_name_H-M   'P 1'
_cell_length_a   3.69559624
_cell_length_b   3.69559624
_cell_length_c   6.74276958
_cell_angle_alpha   105.90489694
_cell_angle_beta   105.90489694
_cell_angle_gamma   90.00000000
_symmetry_Int_Tables_number   1
_chemical_formula_structural   Sm2AlNO3
_chemical_formula_sum   'Sm2 Al1 N1 O3'
_cell_volume   84.89192487
_cell_formula_units_Z   1
loop_
 _symmetry_equiv_pos_site_id
 _symmetry_equiv_pos_as_xyz
  1  'x, y, z'
loop_
 _atom_site_type_symbol
 _atom_site_label
 _atom_site_symmetry_multiplicity
 _atom_site_fract_x
 _atom_site_fract_y
 _atom_site_fract_z
 _atom_site_occupancy
  Sm  Sm1  1  0.518498  0.518498  0.036996  1.0
  Sm  Sm2  1  0.808152  0.808152  0.616303  1.0
  Al  Al3  1  0.156947  0.156947  0.313894  1.0
  N  N4  1  0.995631  0.995631  0.991261  1.0
  O  O5  1  0.170842  0.670842  0.341684  1.0
  O  O6  1  0.670842  0.170842  0.341684  1.0
  O  O7  1  0.331789  0.331789  0.663577  1.0
