# generated using pymatgen
data_Hf2SeN2
_symmetry_space_group_name_H-M   'P 1'
_cell_length_a   3.62220924
_cell_length_b   3.62220924
_cell_length_c   6.65625300
_cell_angle_alpha   90.00000000
_cell_angle_beta   90.00000000
_cell_angle_gamma   119.99998611
_symmetry_Int_Tables_number   1
_chemical_formula_structural   Hf2SeN2
_chemical_formula_sum   'Hf2 Se1 N2'
_cell_volume   75.63234770
_cell_formula_units_Z   1
loop_
 _symmetry_equiv_pos_site_id
 _symmetry_equiv_pos_as_xyz
  1  'x, y, z'
loop_
 _atom_site_type_symbol
 _atom_site_label
 _atom_site_symmetry_multiplicity
 _atom_site_fract_x
 _atom_site_fract_y
 _atom_site_fract_z
 _atom_site_occupancy
  Hf  Hf1  1  0.666667  0.333333  0.694530  1.0
  Hf  Hf2  1  0.333333  0.666667  0.305470  1.0
  Se  Se3  1  0.000000  0.000000  0.000000  1.0
  N  N4  1  0.666667  0.333333  0.368902  1.0
  N  N5  1  0.333333  0.666667  0.631098  1.0
