# generated using pymatgen
data_CaSiN2
_symmetry_space_group_name_H-M   'P 1'
_cell_length_a   6.15727530
_cell_length_b   11.04631894
_cell_length_c   6.84259473
_cell_angle_alpha   90.00000000
_cell_angle_beta   90.00000000
_cell_angle_gamma   26.23174305
_symmetry_Int_Tables_number   1
_chemical_formula_structural   CaSiN2
_chemical_formula_sum   'Ca4 Si4 N8'
_cell_volume   205.70842201
_cell_formula_units_Z   4
loop_
 _symmetry_equiv_pos_site_id
 _symmetry_equiv_pos_as_xyz
  1  'x, y, z'
loop_
 _atom_site_type_symbol
 _atom_site_label
 _atom_site_symmetry_multiplicity
 _atom_site_fract_x
 _atom_site_fract_y
 _atom_site_fract_z
 _atom_site_occupancy
  Ca  Ca1  1  0.000000  0.175947  0.572396  1.0
  Ca  Ca2  1  0.000000  0.824053  0.427604  1.0
  Ca  Ca3  1  0.000000  0.324053  0.072396  1.0
  Ca  Ca4  1  0.000000  0.675947  0.927604  1.0
  Si  Si5  1  0.000000  0.438295  0.642516  1.0
  Si  Si6  1  0.000000  0.561705  0.357484  1.0
  Si  Si7  1  0.000000  0.061705  0.142516  1.0
  Si  Si8  1  0.000000  0.938295  0.857484  1.0
  N  N9  1  0.000000  0.097403  0.889877  1.0
  N  N10  1  0.000000  0.902597  0.110123  1.0
  N  N11  1  0.000000  0.402597  0.389877  1.0
  N  N12  1  0.000000  0.597403  0.610123  1.0
  N  N13  1  0.500000  0.619156  0.750000  1.0
  N  N14  1  0.500000  0.880844  0.250000  1.0
  N  N15  1  0.500000  0.380844  0.250000  1.0
  N  N16  1  0.500000  0.119156  0.750000  1.0
