# generated using pymatgen
data_SrLi4N2
_symmetry_space_group_name_H-M   'P 1'
_cell_length_a   3.82971167
_cell_length_b   3.82971167
_cell_length_c   13.80031470
_cell_angle_alpha   97.97578128
_cell_angle_beta   97.97578128
_cell_angle_gamma   89.99999995
_symmetry_Int_Tables_number   1
_chemical_formula_structural   SrLi4N2
_chemical_formula_sum   'Sr2 Li8 N4'
_cell_volume   198.46984030
_cell_formula_units_Z   2
loop_
 _symmetry_equiv_pos_site_id
 _symmetry_equiv_pos_as_xyz
  1  'x, y, z'
loop_
 _atom_site_type_symbol
 _atom_site_label
 _atom_site_symmetry_multiplicity
 _atom_site_fract_x
 _atom_site_fract_y
 _atom_site_fract_z
 _atom_site_occupancy
  Sr  Sr1  1  0.625000  0.875000  0.750000  1.0
  Sr  Sr2  1  0.375000  0.125000  0.250000  1.0
  Li  Li3  1  0.728723  0.978723  0.957445  1.0
  Li  Li4  1  0.478722  0.228722  0.457445  1.0
  Li  Li5  1  0.052829  0.302829  0.605658  1.0
  Li  Li6  1  0.802829  0.552829  0.105658  1.0
  Li  Li7  1  0.947171  0.697171  0.394342  1.0
  Li  Li8  1  0.271278  0.021278  0.042555  1.0
  Li  Li9  1  0.521277  0.771277  0.542555  1.0
  Li  Li10  1  0.197171  0.447171  0.894342  1.0
  N  N11  1  0.193029  0.943029  0.886057  1.0
  N  N12  1  0.443029  0.693029  0.386057  1.0
  N  N13  1  0.806971  0.056971  0.113943  1.0
  N  N14  1  0.556971  0.306971  0.613943  1.0
