# generated using pymatgen
data_LiFeAs2O7
_symmetry_space_group_name_H-M   'P 1'
_cell_length_a   4.82938740
_cell_length_b   5.40535497
_cell_length_c   5.40535497
_cell_angle_alpha   102.24006302
_cell_angle_beta   98.70862461
_cell_angle_gamma   98.70862461
_symmetry_Int_Tables_number   1
_chemical_formula_structural   LiFeAs2O7
_chemical_formula_sum   'Li1 Fe1 As2 O7'
_cell_volume   133.82485643
_cell_formula_units_Z   1
loop_
 _symmetry_equiv_pos_site_id
 _symmetry_equiv_pos_as_xyz
  1  'x, y, z'
loop_
 _atom_site_type_symbol
 _atom_site_label
 _atom_site_symmetry_multiplicity
 _atom_site_fract_x
 _atom_site_fract_y
 _atom_site_fract_z
 _atom_site_occupancy
  Li  Li1  1  0.000000  0.378877  0.621123  1.0
  Fe  Fe2  1  0.000000  0.999856  0.000144  1.0
  As  As3  1  0.591427  0.446152  0.117809  1.0
  As  As4  1  0.408573  0.882191  0.553848  1.0
  O  O5  1  0.823553  0.268317  0.230123  1.0
  O  O6  1  0.176447  0.769877  0.731683  1.0
  O  O7  1  0.744754  0.674981  0.984652  1.0
  O  O8  1  0.255246  0.015348  0.325019  1.0
  O  O9  1  0.272675  0.289604  0.922015  1.0
  O  O10  1  0.727325  0.077985  0.710396  1.0
  O  O11  1  0.500000  0.581513  0.418487  1.0
