# generated using pymatgen
data_Cs2PbO3
_symmetry_space_group_name_H-M   'P 1'
_cell_length_a   6.21160182
_cell_length_b   7.02035958
_cell_length_c   7.02035958
_cell_angle_alpha   111.50227681
_cell_angle_beta   90.00000000
_cell_angle_gamma   90.00000000
_symmetry_Int_Tables_number   1
_chemical_formula_structural   Cs2PbO3
_chemical_formula_sum   'Cs4 Pb2 O6'
_cell_volume   284.83504772
_cell_formula_units_Z   2
loop_
 _symmetry_equiv_pos_site_id
 _symmetry_equiv_pos_as_xyz
  1  'x, y, z'
loop_
 _atom_site_type_symbol
 _atom_site_label
 _atom_site_symmetry_multiplicity
 _atom_site_fract_x
 _atom_site_fract_y
 _atom_site_fract_z
 _atom_site_occupancy
  Cs  Cs1  1  0.254049  0.482648  0.807853  1.0
  Cs  Cs2  1  0.754049  0.192147  0.517352  1.0
  Cs  Cs3  1  0.754049  0.517352  0.192147  1.0
  Cs  Cs4  1  0.254049  0.807853  0.482648  1.0
  Pb  Pb5  1  0.734803  0.912160  0.912160  1.0
  Pb  Pb6  1  0.234803  0.087840  0.087840  1.0
  O  O7  1  0.690379  0.651856  0.651856  1.0
  O  O8  1  0.190379  0.348144  0.348144  1.0
  O  O9  1  0.991861  0.861357  0.109068  1.0
  O  O10  1  0.491861  0.138643  0.890932  1.0
  O  O11  1  0.991861  0.109068  0.861357  1.0
  O  O12  1  0.491861  0.890932  0.138643  1.0
