# generated using pymatgen
data_HgBr2
_symmetry_space_group_name_H-M   'P 1'
_cell_length_a   4.30854264
_cell_length_b   4.30854264
_cell_length_c   13.08790883
_cell_angle_alpha   90.00000000
_cell_angle_beta   90.00000000
_cell_angle_gamma   108.64876632
_symmetry_Int_Tables_number   1
_chemical_formula_structural   HgBr2
_chemical_formula_sum   'Hg2 Br4'
_cell_volume   230.20179588
_cell_formula_units_Z   2
loop_
 _symmetry_equiv_pos_site_id
 _symmetry_equiv_pos_as_xyz
  1  'x, y, z'
loop_
 _atom_site_type_symbol
 _atom_site_label
 _atom_site_symmetry_multiplicity
 _atom_site_fract_x
 _atom_site_fract_y
 _atom_site_fract_z
 _atom_site_occupancy
  Hg  Hg1  1  0.666421  0.333579  0.500133  1.0
  Hg  Hg2  1  0.333579  0.666421  0.000133  1.0
  Br  Br3  1  0.599914  0.400086  0.125666  1.0
  Br  Br4  1  0.400086  0.599914  0.625666  1.0
  Br  Br5  1  0.067618  0.932382  0.874200  1.0
  Br  Br6  1  0.932382  0.067618  0.374200  1.0
