# generated using pymatgen
data_RbBrO3
_symmetry_space_group_name_H-M   'P 1'
_cell_length_a   4.62563447
_cell_length_b   4.62563448
_cell_length_c   4.62563448
_cell_angle_alpha   85.85246516
_cell_angle_beta   85.85246520
_cell_angle_gamma   85.85246511
_symmetry_Int_Tables_number   1
_chemical_formula_structural   RbBrO3
_chemical_formula_sum   'Rb1 Br1 O3'
_cell_volume   98.23045345
_cell_formula_units_Z   1
loop_
 _symmetry_equiv_pos_site_id
 _symmetry_equiv_pos_as_xyz
  1  'x, y, z'
loop_
 _atom_site_type_symbol
 _atom_site_label
 _atom_site_symmetry_multiplicity
 _atom_site_fract_x
 _atom_site_fract_y
 _atom_site_fract_z
 _atom_site_occupancy
  Rb  Rb1  1  0.990286  0.990286  0.990286  1.0
  Br  Br2  1  0.471337  0.471337  0.471337  1.0
  O  O3  1  0.108148  0.533095  0.533095  1.0
  O  O4  1  0.533095  0.533095  0.108148  1.0
  O  O5  1  0.533095  0.108148  0.533095  1.0
