# generated using pymatgen
data_SnAu5
_symmetry_space_group_name_H-M   'P 1'
_cell_length_a   5.73343098
_cell_length_b   5.73343098
_cell_length_c   5.73343097
_cell_angle_alpha   53.97657246
_cell_angle_beta   53.97657247
_cell_angle_gamma   53.97657247
_symmetry_Int_Tables_number   1
_chemical_formula_structural   SnAu5
_chemical_formula_sum   'Sn1 Au5'
_cell_volume   114.51734829
_cell_formula_units_Z   1
loop_
 _symmetry_equiv_pos_site_id
 _symmetry_equiv_pos_as_xyz
  1  'x, y, z'
loop_
 _atom_site_type_symbol
 _atom_site_label
 _atom_site_symmetry_multiplicity
 _atom_site_fract_x
 _atom_site_fract_y
 _atom_site_fract_z
 _atom_site_occupancy
  Sn  Sn1  1  0.000031  0.000031  0.000031  1.0
  Au  Au2  1  0.670045  0.670045  0.670045  1.0
  Au  Au3  1  0.500011  0.172485  0.827548  1.0
  Au  Au4  1  0.827548  0.500011  0.172485  1.0
  Au  Au5  1  0.172485  0.827548  0.500011  1.0
  Au  Au6  1  0.329981  0.329981  0.329981  1.0
