# generated using pymatgen
data_Zn2GeSe4
_symmetry_space_group_name_H-M   'P 1'
_cell_length_a   8.16649142
_cell_length_b   10.59328318
_cell_length_c   6.74697543
_cell_angle_alpha   29.51772744
_cell_angle_beta   52.75701898
_cell_angle_gamma   39.56412405
_symmetry_Int_Tables_number   1
_chemical_formula_structural   Zn2GeSe4
_chemical_formula_sum   'Zn2 Ge1 Se4'
_cell_volume   179.11513619
_cell_formula_units_Z   1
loop_
 _symmetry_equiv_pos_site_id
 _symmetry_equiv_pos_as_xyz
  1  'x, y, z'
loop_
 _atom_site_type_symbol
 _atom_site_label
 _atom_site_symmetry_multiplicity
 _atom_site_fract_x
 _atom_site_fract_y
 _atom_site_fract_z
 _atom_site_occupancy
  Zn  Zn1  1  0.000001  0.000025  0.999958  1.0
  Zn  Zn2  1  0.499992  0.000025  0.999958  1.0
  Ge  Ge3  1  0.250010  0.499998  0.999986  1.0
  Se  Se4  1  0.385184  0.500003  0.233406  1.0
  Se  Se5  1  0.114804  0.003756  0.262880  1.0
  Se  Se6  1  0.881404  0.500003  0.233406  1.0
  Se  Se7  1  0.618606  0.996191  0.270407  1.0
