# generated using pymatgen
data_SmOF
_symmetry_space_group_name_H-M   'P 1'
_cell_length_a   3.93774414
_cell_length_b   3.93774397
_cell_length_c   3.93774423
_cell_angle_alpha   60.00000127
_cell_angle_beta   60.00000074
_cell_angle_gamma   59.99999855
_symmetry_Int_Tables_number   1
_chemical_formula_structural   SmOF
_chemical_formula_sum   'Sm1 O1 F1'
_cell_volume   43.17451591
_cell_formula_units_Z   1
loop_
 _symmetry_equiv_pos_site_id
 _symmetry_equiv_pos_as_xyz
  1  'x, y, z'
loop_
 _atom_site_type_symbol
 _atom_site_label
 _atom_site_symmetry_multiplicity
 _atom_site_fract_x
 _atom_site_fract_y
 _atom_site_fract_z
 _atom_site_occupancy
  Sm  Sm1  1  0.000000  0.000000  0.000000  1.0
  O  O2  1  0.250000  0.250000  0.250000  1.0
  F  F3  1  0.750000  0.750000  0.750000  1.0
