# generated using pymatgen
data_CaCN2
_symmetry_space_group_name_H-M   'P 1'
_cell_length_a   3.72125134
_cell_length_b   3.72125134
_cell_length_c   14.87438900
_cell_angle_alpha   90.00000000
_cell_angle_beta   90.00000000
_cell_angle_gamma   119.99998821
_symmetry_Int_Tables_number   1
_chemical_formula_structural   CaCN2
_chemical_formula_sum   'Ca3 C3 N6'
_cell_volume   178.38068466
_cell_formula_units_Z   3
loop_
 _symmetry_equiv_pos_site_id
 _symmetry_equiv_pos_as_xyz
  1  'x, y, z'
loop_
 _atom_site_type_symbol
 _atom_site_label
 _atom_site_symmetry_multiplicity
 _atom_site_fract_x
 _atom_site_fract_y
 _atom_site_fract_z
 _atom_site_occupancy
  Ca  Ca1  1  0.333333  0.666667  0.666667  1.0
  Ca  Ca2  1  0.000000  0.000000  0.000000  1.0
  Ca  Ca3  1  0.666667  0.333333  0.333333  1.0
  C  C4  1  0.666667  0.333333  0.833333  1.0
  C  C5  1  0.333333  0.666667  0.166667  1.0
  C  C6  1  0.000000  0.000000  0.500000  1.0
  N  N7  1  0.666667  0.333333  0.916481  1.0
  N  N8  1  0.666667  0.333333  0.750185  1.0
  N  N9  1  0.333333  0.666667  0.249815  1.0
  N  N10  1  0.333333  0.666667  0.083519  1.0
  N  N11  1  0.000000  0.000000  0.583148  1.0
  N  N12  1  0.000000  0.000000  0.416852  1.0
