# generated using pymatgen
data_Zn(GaS2)2
_symmetry_space_group_name_H-M   'P 1'
_cell_length_a   5.37088633
_cell_length_b   5.37088634
_cell_length_c   6.47834203
_cell_angle_alpha   114.48948902
_cell_angle_beta   114.48948900
_cell_angle_gamma   90.00000000
_symmetry_Int_Tables_number   1
_chemical_formula_structural   Zn(GaS2)2
_chemical_formula_sum   'Zn1 Ga2 S4'
_cell_volume   151.39755886
_cell_formula_units_Z   1
loop_
 _symmetry_equiv_pos_site_id
 _symmetry_equiv_pos_as_xyz
  1  'x, y, z'
loop_
 _atom_site_type_symbol
 _atom_site_label
 _atom_site_symmetry_multiplicity
 _atom_site_fract_x
 _atom_site_fract_y
 _atom_site_fract_z
 _atom_site_occupancy
  Zn  Zn1  1  0.000000  0.000000  0.000000  1.0
  Ga  Ga2  1  0.250000  0.750000  0.500000  1.0
  Ga  Ga3  1  0.500000  0.500000  0.000000  1.0
  S  S4  1  0.119393  0.610398  0.739391  1.0
  S  S5  1  0.871008  0.880607  0.260609  1.0
  S  S6  1  0.389602  0.380002  0.260609  1.0
  S  S7  1  0.619998  0.128992  0.739391  1.0
