# generated using pymatgen
data_LiNbN2
_symmetry_space_group_name_H-M   'P 1'
_cell_length_a   4.25263900
_cell_length_b   6.17384100
_cell_length_c   7.41939400
_cell_angle_alpha   90.00000000
_cell_angle_beta   90.00000000
_cell_angle_gamma   90.00000000
_symmetry_Int_Tables_number   1
_chemical_formula_structural   LiNbN2
_chemical_formula_sum   'Li4 Nb4 N8'
_cell_volume   194.79705766
_cell_formula_units_Z   4
loop_
 _symmetry_equiv_pos_site_id
 _symmetry_equiv_pos_as_xyz
  1  'x, y, z'
loop_
 _atom_site_type_symbol
 _atom_site_label
 _atom_site_symmetry_multiplicity
 _atom_site_fract_x
 _atom_site_fract_y
 _atom_site_fract_z
 _atom_site_occupancy
  Li  Li1  1  0.942381  0.576317  0.393406  1.0
  Li  Li2  1  0.442381  0.423683  0.606594  1.0
  Li  Li3  1  0.442381  0.923683  0.893406  1.0
  Li  Li4  1  0.942381  0.076317  0.106594  1.0
  Nb  Nb5  1  0.942573  0.579780  0.865814  1.0
  Nb  Nb6  1  0.442573  0.420220  0.134186  1.0
  Nb  Nb7  1  0.442573  0.920220  0.365814  1.0
  Nb  Nb8  1  0.942573  0.079780  0.634186  1.0
  N  N9  1  0.442513  0.592424  0.353070  1.0
  N  N10  1  0.942513  0.407576  0.646930  1.0
  N  N11  1  0.942513  0.907576  0.853070  1.0
  N  N12  1  0.442513  0.092424  0.146930  1.0
  N  N13  1  0.442532  0.580254  0.897196  1.0
  N  N14  1  0.942532  0.419746  0.102804  1.0
  N  N15  1  0.942532  0.919746  0.397196  1.0
  N  N16  1  0.442532  0.080254  0.602804  1.0
