# generated using pymatgen
data_CuI
_symmetry_space_group_name_H-M   'P 1'
_cell_length_a   4.28597134
_cell_length_b   17.15645811
_cell_length_c   7.42916228
_cell_angle_alpha   29.99735509
_cell_angle_beta   54.73071730
_cell_angle_gamma   59.99512319
_symmetry_Int_Tables_number   1
_chemical_formula_structural   CuI
_chemical_formula_sum   'Cu4 I4'
_cell_volume   222.98731730
_cell_formula_units_Z   4
loop_
 _symmetry_equiv_pos_site_id
 _symmetry_equiv_pos_as_xyz
  1  'x, y, z'
loop_
 _atom_site_type_symbol
 _atom_site_label
 _atom_site_symmetry_multiplicity
 _atom_site_fract_x
 _atom_site_fract_y
 _atom_site_fract_z
 _atom_site_occupancy
  Cu  Cu1  1  0.839560  0.002027  0.719663  1.0
  Cu  Cu2  1  0.839560  0.247973  0.727769  1.0
  Cu  Cu3  1  0.771623  0.495330  0.748715  1.0
  Cu  Cu4  1  0.771623  0.754670  0.730034  1.0
  I  I5  1  0.077197  0.998677  0.980528  1.0
  I  I6  1  0.077197  0.251323  0.975235  1.0
  I  I7  1  0.030320  0.501619  0.982890  1.0
  I  I8  1  0.030320  0.748381  0.989366  1.0
