# generated using pymatgen
data_Mn(CuCl2)2
_symmetry_space_group_name_H-M   'P 1'
_cell_length_a   3.84713150
_cell_length_b   7.52963908
_cell_length_c   7.52963864
_cell_angle_alpha   60.23394902
_cell_angle_beta   59.27408556
_cell_angle_gamma   59.27408414
_symmetry_Int_Tables_number   1
_chemical_formula_structural   Mn(CuCl2)2
_chemical_formula_sum   'Mn1 Cu2 Cl4'
_cell_volume   152.77824798
_cell_formula_units_Z   1
loop_
 _symmetry_equiv_pos_site_id
 _symmetry_equiv_pos_as_xyz
  1  'x, y, z'
loop_
 _atom_site_type_symbol
 _atom_site_label
 _atom_site_symmetry_multiplicity
 _atom_site_fract_x
 _atom_site_fract_y
 _atom_site_fract_z
 _atom_site_occupancy
  Mn  Mn1  1  0.500000  0.777974  0.722026  1.0
  Cu  Cu2  1  0.342390  0.161821  0.995789  1.0
  Cu  Cu3  1  0.657610  0.504211  0.338179  1.0
  Cl  Cl4  1  0.024784  0.981612  0.993603  1.0
  Cl  Cl5  1  0.000000  0.515515  0.984485  1.0
  Cl  Cl6  1  0.000000  0.982470  0.517530  1.0
  Cl  Cl7  1  0.975216  0.506397  0.518388  1.0
