# generated using pymatgen
data_CdTe
_symmetry_space_group_name_H-M   'P 1'
_cell_length_a   4.67575202
_cell_length_b   4.67575202
_cell_length_c   7.63690305
_cell_angle_alpha   90.00000000
_cell_angle_beta   90.00000000
_cell_angle_gamma   60.64243308
_symmetry_Int_Tables_number   1
_chemical_formula_structural   CdTe
_chemical_formula_sum   'Cd2 Te2'
_cell_volume   145.52112567
_cell_formula_units_Z   2
loop_
 _symmetry_equiv_pos_site_id
 _symmetry_equiv_pos_as_xyz
  1  'x, y, z'
loop_
 _atom_site_type_symbol
 _atom_site_label
 _atom_site_symmetry_multiplicity
 _atom_site_fract_x
 _atom_site_fract_y
 _atom_site_fract_z
 _atom_site_occupancy
  Cd  Cd1  1  0.848473  0.848473  0.000173  1.0
  Cd  Cd2  1  0.151527  0.151527  0.500173  1.0
  Te  Te3  1  0.182190  0.182190  0.124827  1.0
  Te  Te4  1  0.817810  0.817810  0.624827  1.0
