# generated using pymatgen
data_CdCl2
_symmetry_space_group_name_H-M   'P 1'
_cell_length_a   12.76903189
_cell_length_b   3.92233144
_cell_length_c   7.78990880
_cell_angle_alpha   126.16481623
_cell_angle_beta   153.15074670
_cell_angle_gamma   34.76183611
_symmetry_Int_Tables_number   1
_chemical_formula_structural   CdCl2
_chemical_formula_sum   'Cd1 Cl2'
_cell_volume   83.59176973
_cell_formula_units_Z   1
loop_
 _symmetry_equiv_pos_site_id
 _symmetry_equiv_pos_as_xyz
  1  'x, y, z'
loop_
 _atom_site_type_symbol
 _atom_site_label
 _atom_site_symmetry_multiplicity
 _atom_site_fract_x
 _atom_site_fract_y
 _atom_site_fract_z
 _atom_site_occupancy
  Cd  Cd1  1  0.012820  0.991379  0.015255  1.0
  Cl  Cl2  1  0.701980  0.229763  0.933290  1.0
  Cl  Cl3  1  0.322912  0.754410  0.096727  1.0
