# generated using pymatgen
data_Rb3NbO8
_symmetry_space_group_name_H-M   'P 1'
_cell_length_a   6.55767838
_cell_length_b   6.55767838
_cell_length_c   6.55767838
_cell_angle_alpha   101.98867023
_cell_angle_beta   113.33714600
_cell_angle_gamma   113.33714601
_symmetry_Int_Tables_number   1
_chemical_formula_structural   Rb3NbO8
_chemical_formula_sum   'Rb3 Nb1 O8'
_cell_volume   214.35854366
_cell_formula_units_Z   1
loop_
 _symmetry_equiv_pos_site_id
 _symmetry_equiv_pos_as_xyz
  1  'x, y, z'
loop_
 _atom_site_type_symbol
 _atom_site_label
 _atom_site_symmetry_multiplicity
 _atom_site_fract_x
 _atom_site_fract_y
 _atom_site_fract_z
 _atom_site_occupancy
  Rb  Rb1  1  0.000000  0.500000  0.500000  1.0
  Rb  Rb2  1  0.500000  0.750000  0.250000  1.0
  Rb  Rb3  1  0.500000  0.250000  0.750000  1.0
  Nb  Nb4  1  0.000000  0.000000  0.000000  1.0
  O  O5  1  0.271893  0.954184  0.954184  1.0
  O  O6  1  0.000000  0.045816  0.317709  1.0
  O  O7  1  0.000000  0.317709  0.045816  1.0
  O  O8  1  0.728107  0.682291  0.682291  1.0
  O  O9  1  0.590337  0.774445  0.774445  1.0
  O  O10  1  0.000000  0.225555  0.815892  1.0
  O  O11  1  0.000000  0.815892  0.225555  1.0
  O  O12  1  0.409663  0.184108  0.184108  1.0
