# generated using pymatgen
data_CsCd(NO2)3
_symmetry_space_group_name_H-M   'P 1'
_cell_length_a   5.58508289
_cell_length_b   5.58508289
_cell_length_c   5.58508289
_cell_angle_alpha   90.31035529
_cell_angle_beta   90.31035538
_cell_angle_gamma   90.31035526
_symmetry_Int_Tables_number   1
_chemical_formula_structural   CsCd(NO2)3
_chemical_formula_sum   'Cs1 Cd1 N3 O6'
_cell_volume   174.20863804
_cell_formula_units_Z   1
loop_
 _symmetry_equiv_pos_site_id
 _symmetry_equiv_pos_as_xyz
  1  'x, y, z'
loop_
 _atom_site_type_symbol
 _atom_site_label
 _atom_site_symmetry_multiplicity
 _atom_site_fract_x
 _atom_site_fract_y
 _atom_site_fract_z
 _atom_site_occupancy
  Cs  Cs1  1  0.554730  0.554730  0.554730  1.0
  Cd  Cd2  1  0.019744  0.019744  0.019744  1.0
  N  N3  1  0.067706  0.473248  0.042186  1.0
  N  N4  1  0.473248  0.042186  0.067706  1.0
  N  N5  1  0.042186  0.067706  0.473248  1.0
  O  O6  1  0.578226  0.240810  0.065576  1.0
  O  O7  1  0.065576  0.578226  0.240810  1.0
  O  O8  1  0.858078  0.064241  0.605987  1.0
  O  O9  1  0.605987  0.858078  0.064241  1.0
  O  O10  1  0.064241  0.605987  0.858078  1.0
  O  O11  1  0.240810  0.065576  0.578226  1.0
