# generated using pymatgen
data_SiO2
_symmetry_space_group_name_H-M   'P 1'
_cell_length_a   4.91879580
_cell_length_b   8.76191366
_cell_length_c   10.58682259
_cell_angle_alpha   90.00000000
_cell_angle_beta   90.00000000
_cell_angle_gamma   90.00000000
_symmetry_Int_Tables_number   1
_chemical_formula_structural   SiO2
_chemical_formula_sum   'Si12 O24'
_cell_volume   456.27155871
_cell_formula_units_Z   12
loop_
 _symmetry_equiv_pos_site_id
 _symmetry_equiv_pos_as_xyz
  1  'x, y, z'
loop_
 _atom_site_type_symbol
 _atom_site_label
 _atom_site_symmetry_multiplicity
 _atom_site_fract_x
 _atom_site_fract_y
 _atom_site_fract_z
 _atom_site_occupancy
  Si  Si1  1  0.307822  0.286836  0.413029  1.0
  Si  Si2  1  0.192205  0.786815  0.081515  1.0
  Si  Si3  1  0.692178  0.786836  0.913029  1.0
  Si  Si4  1  0.500000  0.000000  0.279372  1.0
  Si  Si5  1  0.807795  0.213185  0.081515  1.0
  Si  Si6  1  0.307822  0.213164  0.913029  1.0
  Si  Si7  1  0.192205  0.713185  0.581515  1.0
  Si  Si8  1  0.000000  0.500000  0.215205  1.0
  Si  Si9  1  0.000000  0.000000  0.715205  1.0
  Si  Si10  1  0.807795  0.286815  0.581515  1.0
  Si  Si11  1  0.692178  0.713164  0.413029  1.0
  Si  Si12  1  0.500000  0.500000  0.779372  1.0
  O  O13  1  0.695012  0.890686  0.366050  1.0
  O  O14  1  0.195007  0.890700  0.628517  1.0
  O  O15  1  0.206984  0.395618  0.298561  1.0
  O  O16  1  0.195007  0.609300  0.128517  1.0
  O  O17  1  0.619812  0.179395  0.957489  1.0
  O  O18  1  0.304988  0.390686  0.866050  1.0
  O  O19  1  0.804993  0.109300  0.628517  1.0
  O  O20  1  0.706951  0.395618  0.695987  1.0
  O  O21  1  0.293049  0.604382  0.695987  1.0
  O  O22  1  0.793016  0.604382  0.298561  1.0
  O  O23  1  0.804993  0.390700  0.128517  1.0
  O  O24  1  0.293049  0.895618  0.195987  1.0
  O  O25  1  0.119781  0.320594  0.537064  1.0
  O  O26  1  0.793016  0.895618  0.798561  1.0
  O  O27  1  0.206984  0.104382  0.798561  1.0
  O  O28  1  0.119781  0.179406  0.037064  1.0
  O  O29  1  0.880219  0.820594  0.037064  1.0
  O  O30  1  0.695012  0.609314  0.866050  1.0
  O  O31  1  0.706951  0.104382  0.195987  1.0
  O  O32  1  0.880219  0.679406  0.537064  1.0
  O  O33  1  0.380188  0.679395  0.457489  1.0
  O  O34  1  0.619812  0.320605  0.457489  1.0
  O  O35  1  0.380188  0.820605  0.957489  1.0
  O  O36  1  0.304988  0.109314  0.366050  1.0
