# generated using pymatgen
data_LiMnOF2
_symmetry_space_group_name_H-M   'P 1'
_cell_length_a   5.34397617
_cell_length_b   5.44222045
_cell_length_c   5.09163427
_cell_angle_alpha   114.01071177
_cell_angle_beta   58.37826186
_cell_angle_gamma   119.42677850
_symmetry_Int_Tables_number   1
_chemical_formula_structural   LiMnOF2
_chemical_formula_sum   'Li2 Mn2 O2 F4'
_cell_volume   107.57797295
_cell_formula_units_Z   2
loop_
 _symmetry_equiv_pos_site_id
 _symmetry_equiv_pos_as_xyz
  1  'x, y, z'
loop_
 _atom_site_type_symbol
 _atom_site_label
 _atom_site_symmetry_multiplicity
 _atom_site_fract_x
 _atom_site_fract_y
 _atom_site_fract_z
 _atom_site_occupancy
  Li  Li1  1  0.409723  0.344284  0.450308  1.0
  Li  Li2  1  0.978939  0.837598  0.945335  1.0
  Mn  Mn3  1  0.734207  0.211010  0.732475  1.0
  Mn  Mn4  1  0.240566  0.712354  0.233283  1.0
  O  O5  1  0.364241  0.995309  0.022159  1.0
  O  O6  1  0.104072  0.496837  0.524329  1.0
  F  F7  1  0.008949  0.013969  0.656029  1.0
  F  F8  1  0.629299  0.964252  0.333339  1.0
  F  F9  1  0.497862  0.465036  0.835283  1.0
  F  F10  1  0.844830  0.513996  0.157275  1.0
