# generated using pymatgen
data_Al2HgS4
_symmetry_space_group_name_H-M   'P 1'
_cell_length_a   5.63341960
_cell_length_b   5.63341960
_cell_length_c   6.51838449
_cell_angle_alpha   115.60203473
_cell_angle_beta   115.60203468
_cell_angle_gamma   90.00000004
_symmetry_Int_Tables_number   1
_chemical_formula_structural   Al2HgS4
_chemical_formula_sum   'Al2 Hg1 S4'
_cell_volume   163.74253413
_cell_formula_units_Z   1
loop_
 _symmetry_equiv_pos_site_id
 _symmetry_equiv_pos_as_xyz
  1  'x, y, z'
loop_
 _atom_site_type_symbol
 _atom_site_label
 _atom_site_symmetry_multiplicity
 _atom_site_fract_x
 _atom_site_fract_y
 _atom_site_fract_z
 _atom_site_occupancy
  Al  Al1  1  0.250000  0.750000  0.500000  1.0
  Al  Al2  1  0.500000  0.500000  0.000000  1.0
  Hg  Hg3  1  0.000000  0.000000  0.000000  1.0
  S  S4  1  0.868454  0.853986  0.270798  1.0
  S  S5  1  0.402344  0.416812  0.270798  1.0
  S  S6  1  0.146014  0.597656  0.729202  1.0
  S  S7  1  0.583188  0.131546  0.729202  1.0
