# generated using pymatgen
data_Ba2PdO3
_symmetry_space_group_name_H-M   'P 1'
_cell_length_a   3.90444256
_cell_length_b   4.15715873
_cell_length_c   7.31590046
_cell_angle_alpha   106.50613733
_cell_angle_beta   105.47669166
_cell_angle_gamma   90.00000004
_symmetry_Int_Tables_number   1
_chemical_formula_structural   Ba2PdO3
_chemical_formula_sum   'Ba2 Pd1 O3'
_cell_volume   109.35515846
_cell_formula_units_Z   1
loop_
 _symmetry_equiv_pos_site_id
 _symmetry_equiv_pos_as_xyz
  1  'x, y, z'
loop_
 _atom_site_type_symbol
 _atom_site_label
 _atom_site_symmetry_multiplicity
 _atom_site_fract_x
 _atom_site_fract_y
 _atom_site_fract_z
 _atom_site_occupancy
  Ba  Ba1  1  0.645206  0.645206  0.290413  1.0
  Ba  Ba2  1  0.354794  0.354794  0.709587  1.0
  Pd  Pd3  1  0.000000  0.000000  0.000000  1.0
  O  O4  1  0.845045  0.845045  0.690091  1.0
  O  O5  1  0.154955  0.154955  0.309909  1.0
  O  O6  1  0.000000  0.500000  0.000000  1.0
