# generated using pymatgen
data_Mn2O3
_symmetry_space_group_name_H-M   'P 1'
_cell_length_a   9.59898265
_cell_length_b   9.61929216
_cell_length_c   9.62191805
_cell_angle_alpha   90.00000000
_cell_angle_beta   90.00000000
_cell_angle_gamma   90.00000000
_symmetry_Int_Tables_number   1
_chemical_formula_structural   Mn2O3
_chemical_formula_sum   'Mn32 O48'
_cell_volume   888.44383039
_cell_formula_units_Z   16
loop_
 _symmetry_equiv_pos_site_id
 _symmetry_equiv_pos_as_xyz
  1  'x, y, z'
loop_
 _atom_site_type_symbol
 _atom_site_label
 _atom_site_symmetry_multiplicity
 _atom_site_fract_x
 _atom_site_fract_y
 _atom_site_fract_z
 _atom_site_occupancy
  Mn  Mn1  1  0.752874  0.285824  0.498840  1.0
  Mn  Mn2  1  0.005219  0.244990  0.285278  1.0
  Mn  Mn3  1  0.505219  0.255010  0.714722  1.0
  Mn  Mn4  1  0.247126  0.785824  0.001160  1.0
  Mn  Mn5  1  0.000000  0.000000  0.500000  1.0
  Mn  Mn6  1  0.252874  0.285824  0.001160  1.0
  Mn  Mn7  1  0.505219  0.244990  0.214722  1.0
  Mn  Mn8  1  0.005219  0.255010  0.785278  1.0
  Mn  Mn9  1  0.747126  0.785824  0.498840  1.0
  Mn  Mn10  1  0.247126  0.714176  0.501160  1.0
  Mn  Mn11  1  0.000000  0.000000  0.000000  1.0
  Mn  Mn12  1  0.494781  0.744990  0.285278  1.0
  Mn  Mn13  1  0.752874  0.214176  0.998840  1.0
  Mn  Mn14  1  0.747126  0.714176  0.998840  1.0
  Mn  Mn15  1  0.284488  0.993461  0.252228  1.0
  Mn  Mn16  1  0.284488  0.506539  0.752228  1.0
  Mn  Mn17  1  0.215512  0.493461  0.252228  1.0
  Mn  Mn18  1  0.784488  0.506539  0.747772  1.0
  Mn  Mn19  1  0.994781  0.755010  0.714722  1.0
  Mn  Mn20  1  0.994781  0.744990  0.214722  1.0
  Mn  Mn21  1  0.715512  0.493461  0.247772  1.0
  Mn  Mn22  1  0.000000  0.500000  0.000000  1.0
  Mn  Mn23  1  0.000000  0.500000  0.500000  1.0
  Mn  Mn24  1  0.215512  0.006539  0.752228  1.0
  Mn  Mn25  1  0.784488  0.993461  0.247772  1.0
  Mn  Mn26  1  0.500000  0.500000  0.000000  1.0
  Mn  Mn27  1  0.715512  0.006539  0.747772  1.0
  Mn  Mn28  1  0.500000  0.000000  0.000000  1.0
  Mn  Mn29  1  0.252874  0.214176  0.501160  1.0
  Mn  Mn30  1  0.494781  0.755010  0.785278  1.0
  Mn  Mn31  1  0.500000  0.500000  0.500000  1.0
  Mn  Mn32  1  0.500000  0.000000  0.500000  1.0
  O  O33  1  0.864238  0.649713  0.587444  1.0
  O  O34  1  0.590958  0.136576  0.853506  1.0
  O  O35  1  0.864238  0.850287  0.087444  1.0
  O  O36  1  0.874881  0.358926  0.915410  1.0
  O  O37  1  0.359162  0.087762  0.629811  1.0
  O  O38  1  0.917867  0.124202  0.143684  1.0
  O  O39  1  0.409042  0.636576  0.646494  1.0
  O  O40  1  0.359162  0.412238  0.129811  1.0
  O  O41  1  0.146607  0.418166  0.871810  1.0
  O  O42  1  0.582133  0.624202  0.143684  1.0
  O  O43  1  0.859162  0.412238  0.370189  1.0
  O  O44  1  0.135762  0.350287  0.412556  1.0
  O  O45  1  0.090958  0.363424  0.146494  1.0
  O  O46  1  0.140838  0.912238  0.129811  1.0
  O  O47  1  0.853393  0.918166  0.628190  1.0
  O  O48  1  0.146607  0.081834  0.371810  1.0
  O  O49  1  0.640838  0.587762  0.870189  1.0
  O  O50  1  0.909042  0.863424  0.353506  1.0
  O  O51  1  0.090958  0.136576  0.646494  1.0
  O  O52  1  0.635762  0.350287  0.087444  1.0
  O  O53  1  0.640838  0.912238  0.370189  1.0
  O  O54  1  0.874881  0.141074  0.415410  1.0
  O  O55  1  0.082133  0.624202  0.356316  1.0
  O  O56  1  0.582133  0.875798  0.643684  1.0
  O  O57  1  0.353393  0.581834  0.371810  1.0
  O  O58  1  0.353393  0.918166  0.871810  1.0
  O  O59  1  0.853393  0.581834  0.128190  1.0
  O  O60  1  0.909042  0.636576  0.853506  1.0
  O  O61  1  0.417867  0.124202  0.356316  1.0
  O  O62  1  0.140838  0.587762  0.629811  1.0
  O  O63  1  0.635762  0.149713  0.587444  1.0
  O  O64  1  0.859162  0.087762  0.870189  1.0
  O  O65  1  0.125119  0.858926  0.584590  1.0
  O  O66  1  0.625119  0.641074  0.415410  1.0
  O  O67  1  0.625119  0.858926  0.915410  1.0
  O  O68  1  0.374881  0.358926  0.584590  1.0
  O  O69  1  0.646607  0.081834  0.128190  1.0
  O  O70  1  0.409042  0.863424  0.146494  1.0
  O  O71  1  0.590958  0.363424  0.353506  1.0
  O  O72  1  0.917867  0.375798  0.643684  1.0
  O  O73  1  0.135762  0.149713  0.912556  1.0
  O  O74  1  0.417867  0.375798  0.856316  1.0
  O  O75  1  0.364238  0.850287  0.412556  1.0
  O  O76  1  0.125119  0.641074  0.084590  1.0
  O  O77  1  0.374881  0.141074  0.084590  1.0
  O  O78  1  0.646607  0.418166  0.628190  1.0
  O  O79  1  0.082133  0.875798  0.856316  1.0
  O  O80  1  0.364238  0.649713  0.912556  1.0
