# generated using pymatgen
data_Cr3C2
_symmetry_space_group_name_H-M   'P 1'
_cell_length_a   2.81550039
_cell_length_b   4.82156575
_cell_length_c   6.91668791
_cell_angle_alpha   90.00000000
_cell_angle_beta   90.00000000
_cell_angle_gamma   106.97590471
_symmetry_Int_Tables_number   1
_chemical_formula_structural   Cr3C2
_chemical_formula_sum   'Cr6 C4'
_cell_volume   89.80364771
_cell_formula_units_Z   2
loop_
 _symmetry_equiv_pos_site_id
 _symmetry_equiv_pos_as_xyz
  1  'x, y, z'
loop_
 _atom_site_type_symbol
 _atom_site_label
 _atom_site_symmetry_multiplicity
 _atom_site_fract_x
 _atom_site_fract_y
 _atom_site_fract_z
 _atom_site_occupancy
  Cr  Cr1  1  0.401116  0.802233  0.750000  1.0
  Cr  Cr2  1  0.143502  0.287003  0.929988  1.0
  Cr  Cr3  1  0.598884  0.197767  0.250000  1.0
  Cr  Cr4  1  0.856498  0.712997  0.070012  1.0
  Cr  Cr5  1  0.143502  0.287003  0.570012  1.0
  Cr  Cr6  1  0.856498  0.712997  0.429988  1.0
  C  C7  1  0.753971  0.507942  0.750000  1.0
  C  C8  1  0.246029  0.492058  0.250000  1.0
  C  C9  1  0.500000  0.000000  0.000000  1.0
  C  C10  1  0.500000  0.000000  0.500000  1.0
