# generated using pymatgen
data_Ba(PO3)2
_symmetry_space_group_name_H-M   'P 1'
_cell_length_a   6.99006048
_cell_length_b   7.67385104
_cell_length_c   9.85728252
_cell_angle_alpha   94.76329267
_cell_angle_beta   90.00000000
_cell_angle_gamma   90.00000000
_symmetry_Int_Tables_number   1
_chemical_formula_structural   Ba(PO3)2
_chemical_formula_sum   'Ba4 P8 O24'
_cell_volume   526.92519818
_cell_formula_units_Z   4
loop_
 _symmetry_equiv_pos_site_id
 _symmetry_equiv_pos_as_xyz
  1  'x, y, z'
loop_
 _atom_site_type_symbol
 _atom_site_label
 _atom_site_symmetry_multiplicity
 _atom_site_fract_x
 _atom_site_fract_y
 _atom_site_fract_z
 _atom_site_occupancy
  Ba  Ba1  1  0.902652  0.854795  0.174467  1.0
  Ba  Ba2  1  0.597348  0.354795  0.674467  1.0
  Ba  Ba3  1  0.402652  0.645205  0.325533  1.0
  Ba  Ba4  1  0.097348  0.145205  0.825533  1.0
  P  P5  1  0.894715  0.380009  0.335913  1.0
  P  P6  1  0.795090  0.871392  0.579373  1.0
  P  P7  1  0.394715  0.119991  0.164087  1.0
  P  P8  1  0.204910  0.128608  0.420627  1.0
  P  P9  1  0.295090  0.628608  0.920627  1.0
  P  P10  1  0.704910  0.371392  0.079373  1.0
  P  P11  1  0.605285  0.880009  0.835913  1.0
  P  P12  1  0.105285  0.619991  0.664087  1.0
  O  O13  1  0.775671  0.323718  0.937897  1.0
  O  O14  1  0.968657  0.473802  0.683441  1.0
  O  O15  1  0.501829  0.716555  0.897707  1.0
  O  O16  1  0.001829  0.783445  0.602293  1.0
  O  O17  1  0.842413  0.278795  0.185340  1.0
  O  O18  1  0.657587  0.778795  0.685340  1.0
  O  O19  1  0.998171  0.216555  0.397707  1.0
  O  O20  1  0.181854  0.938723  0.370808  1.0
  O  O21  1  0.275671  0.176282  0.562103  1.0
  O  O22  1  0.157587  0.721205  0.814660  1.0
  O  O23  1  0.224329  0.676282  0.062103  1.0
  O  O24  1  0.210574  0.085993  0.087433  1.0
  O  O25  1  0.724329  0.823718  0.437897  1.0
  O  O26  1  0.818146  0.061277  0.629193  1.0
  O  O27  1  0.468657  0.026198  0.816559  1.0
  O  O28  1  0.289426  0.585993  0.587433  1.0
  O  O29  1  0.710574  0.414007  0.412567  1.0
  O  O30  1  0.342413  0.221205  0.314660  1.0
  O  O31  1  0.531343  0.973802  0.183441  1.0
  O  O32  1  0.498171  0.283445  0.102293  1.0
  O  O33  1  0.789426  0.914007  0.912567  1.0
  O  O34  1  0.681854  0.561277  0.129192  1.0
  O  O35  1  0.031343  0.526198  0.316559  1.0
  O  O36  1  0.318146  0.438723  0.870807  1.0
