# generated using pymatgen
data_NaNbO3
_symmetry_space_group_name_H-M   'P 1'
_cell_length_a   5.69807972
_cell_length_b   5.62103339
_cell_length_c   7.84340435
_cell_angle_alpha   90.00000000
_cell_angle_beta   90.00000000
_cell_angle_gamma   90.00000000
_symmetry_Int_Tables_number   1
_chemical_formula_structural   NaNbO3
_chemical_formula_sum   'Na4 Nb4 O12'
_cell_volume   251.21715376
_cell_formula_units_Z   4
loop_
 _symmetry_equiv_pos_site_id
 _symmetry_equiv_pos_as_xyz
  1  'x, y, z'
loop_
 _atom_site_type_symbol
 _atom_site_label
 _atom_site_symmetry_multiplicity
 _atom_site_fract_x
 _atom_site_fract_y
 _atom_site_fract_z
 _atom_site_occupancy
  Na  Na1  1  0.749347  0.240695  0.500000  1.0
  Na  Na2  1  0.249347  0.759305  0.500000  1.0
  Na  Na3  1  0.728635  0.234553  0.000000  1.0
  Na  Na4  1  0.228635  0.765447  0.000000  1.0
  Nb  Nb5  1  0.231307  0.256939  0.749470  1.0
  Nb  Nb6  1  0.731307  0.743061  0.250530  1.0
  Nb  Nb7  1  0.731307  0.743061  0.749470  1.0
  Nb  Nb8  1  0.231307  0.256939  0.250530  1.0
  O  O9  1  0.482673  0.040762  0.282725  1.0
  O  O10  1  0.982673  0.959238  0.717275  1.0
  O  O11  1  0.982673  0.959238  0.282725  1.0
  O  O12  1  0.482673  0.040762  0.717275  1.0
  O  O13  1  0.908059  0.461065  0.219555  1.0
  O  O14  1  0.408059  0.538935  0.780445  1.0
  O  O15  1  0.408059  0.538935  0.219555  1.0
  O  O16  1  0.908059  0.461065  0.780445  1.0
  O  O17  1  0.695912  0.811859  0.000000  1.0
  O  O18  1  0.195912  0.188141  0.000000  1.0
  O  O19  1  0.676029  0.687410  0.500000  1.0
  O  O20  1  0.176029  0.312590  0.500000  1.0
