# generated using pymatgen
data_CsCuO
_symmetry_space_group_name_H-M   'P 1'
_cell_length_a   5.04687024
_cell_length_b   6.09621200
_cell_length_c   6.00231538
_cell_angle_alpha   120.51884385
_cell_angle_beta   90.00000000
_cell_angle_gamma   90.00000000
_symmetry_Int_Tables_number   1
_chemical_formula_structural   CsCuO
_chemical_formula_sum   'Cs2 Cu2 O2'
_cell_volume   159.08793051
_cell_formula_units_Z   2
loop_
 _symmetry_equiv_pos_site_id
 _symmetry_equiv_pos_as_xyz
  1  'x, y, z'
loop_
 _atom_site_type_symbol
 _atom_site_label
 _atom_site_symmetry_multiplicity
 _atom_site_fract_x
 _atom_site_fract_y
 _atom_site_fract_z
 _atom_site_occupancy
  Cs  Cs1  1  0.750000  0.677892  0.358920  1.0
  Cs  Cs2  1  0.250000  0.318972  0.641080  1.0
  Cu  Cu3  1  0.000000  0.996993  0.000000  1.0
  Cu  Cu4  1  0.500000  0.996993  0.000000  1.0
  O  O5  1  0.750000  0.127152  0.259153  1.0
  O  O6  1  0.250000  0.867999  0.740847  1.0
