# generated using pymatgen
data_Rb2CoF4
_symmetry_space_group_name_H-M   'P 1'
_cell_length_a   4.20373325
_cell_length_b   4.20373324
_cell_length_c   7.54883807
_cell_angle_alpha   106.16686937
_cell_angle_beta   106.16686932
_cell_angle_gamma   89.99999996
_symmetry_Int_Tables_number   1
_chemical_formula_structural   Rb2CoF4
_chemical_formula_sum   'Rb2 Co1 F4'
_cell_volume   122.62108389
_cell_formula_units_Z   1
loop_
 _symmetry_equiv_pos_site_id
 _symmetry_equiv_pos_as_xyz
  1  'x, y, z'
loop_
 _atom_site_type_symbol
 _atom_site_label
 _atom_site_symmetry_multiplicity
 _atom_site_fract_x
 _atom_site_fract_y
 _atom_site_fract_z
 _atom_site_occupancy
  Rb  Rb1  1  0.645246  0.645246  0.290492  1.0
  Rb  Rb2  1  0.354754  0.354754  0.709508  1.0
  Co  Co3  1  0.000000  0.000000  0.000000  1.0
  F  F4  1  0.500000  0.000000  0.000000  1.0
  F  F5  1  0.000000  0.500000  0.000000  1.0
  F  F6  1  0.853290  0.853290  0.706581  1.0
  F  F7  1  0.146710  0.146710  0.293419  1.0
