# generated using pymatgen
data_CuCSN
_symmetry_space_group_name_H-M   'P 1'
_cell_length_a   3.83999441
_cell_length_b   3.83999459
_cell_length_c   10.95317163
_cell_angle_alpha   90.00000000
_cell_angle_beta   90.00000000
_cell_angle_gamma   119.99999857
_symmetry_Int_Tables_number   1
_chemical_formula_structural   CuCSN
_chemical_formula_sum   'Cu2 C2 S2 N2'
_cell_volume   139.87230618
_cell_formula_units_Z   2
loop_
 _symmetry_equiv_pos_site_id
 _symmetry_equiv_pos_as_xyz
  1  'x, y, z'
loop_
 _atom_site_type_symbol
 _atom_site_label
 _atom_site_symmetry_multiplicity
 _atom_site_fract_x
 _atom_site_fract_y
 _atom_site_fract_z
 _atom_site_occupancy
  Cu  Cu1  1  0.666667  0.333333  0.500269  1.0
  Cu  Cu2  1  0.333333  0.666667  0.000269  1.0
  C  C3  1  0.333333  0.666667  0.280488  1.0
  C  C4  1  0.666667  0.333333  0.780488  1.0
  S  S5  1  0.666667  0.333333  0.932305  1.0
  S  S6  1  0.333333  0.666667  0.432305  1.0
  N  N7  1  0.666667  0.333333  0.673138  1.0
  N  N8  1  0.333333  0.666667  0.173138  1.0
