# generated using pymatgen
data_Na2MnO2
_symmetry_space_group_name_H-M   'P 1'
_cell_length_a   6.20893096
_cell_length_b   8.82497803
_cell_length_c   8.82497815
_cell_angle_alpha   87.96459744
_cell_angle_beta   70.13788669
_cell_angle_gamma   70.13788881
_symmetry_Int_Tables_number   1
_chemical_formula_structural   Na2MnO2
_chemical_formula_sum   'Na12 Mn6 O12'
_cell_volume   425.98463247
_cell_formula_units_Z   6
loop_
 _symmetry_equiv_pos_site_id
 _symmetry_equiv_pos_as_xyz
  1  'x, y, z'
loop_
 _atom_site_type_symbol
 _atom_site_label
 _atom_site_symmetry_multiplicity
 _atom_site_fract_x
 _atom_site_fract_y
 _atom_site_fract_z
 _atom_site_occupancy
  Na  Na1  1  0.250000  0.939529  0.060471  1.0
  Na  Na2  1  0.750000  0.060471  0.939529  1.0
  Na  Na3  1  0.737937  0.402931  0.997380  1.0
  Na  Na4  1  0.762063  0.002620  0.597069  1.0
  Na  Na5  1  0.229249  0.325559  0.468375  1.0
  Na  Na6  1  0.770751  0.674441  0.531625  1.0
  Na  Na7  1  0.262063  0.597069  0.002620  1.0
  Na  Na8  1  0.729249  0.468375  0.325559  1.0
  Na  Na9  1  0.270751  0.531625  0.674441  1.0
  Na  Na10  1  0.750000  0.804273  0.195727  1.0
  Na  Na11  1  0.237937  0.997380  0.402931  1.0
  Na  Na12  1  0.250000  0.195727  0.804273  1.0
  Mn  Mn13  1  0.750000  0.315951  0.684049  1.0
  Mn  Mn14  1  0.743334  0.707732  0.867966  1.0
  Mn  Mn15  1  0.256666  0.292268  0.132034  1.0
  Mn  Mn16  1  0.250000  0.684049  0.315951  1.0
  Mn  Mn17  1  0.243334  0.867966  0.707732  1.0
  Mn  Mn18  1  0.756666  0.132034  0.292268  1.0
  O  O19  1  0.466462  0.328134  0.900831  1.0
  O  O20  1  0.517548  0.892779  0.779367  1.0
  O  O21  1  0.598858  0.284568  0.512484  1.0
  O  O22  1  0.982452  0.220633  0.107221  1.0
  O  O23  1  0.901142  0.487516  0.715432  1.0
  O  O24  1  0.017548  0.779367  0.892779  1.0
  O  O25  1  0.033538  0.099169  0.671866  1.0
  O  O26  1  0.098858  0.512484  0.284568  1.0
  O  O27  1  0.482452  0.107221  0.220633  1.0
  O  O28  1  0.401142  0.715432  0.487516  1.0
  O  O29  1  0.533538  0.671866  0.099169  1.0
  O  O30  1  0.966462  0.900831  0.328134  1.0
