# generated using pymatgen
data_TiPO4
_symmetry_space_group_name_H-M   'P 1'
_cell_length_a   4.81255305
_cell_length_b   4.81255306
_cell_length_c   6.59065201
_cell_angle_alpha   90.00000000
_cell_angle_beta   90.00000000
_cell_angle_gamma   113.41501172
_symmetry_Int_Tables_number   1
_chemical_formula_structural   TiPO4
_chemical_formula_sum   'Ti2 P2 O8'
_cell_volume   140.07375349
_cell_formula_units_Z   2
loop_
 _symmetry_equiv_pos_site_id
 _symmetry_equiv_pos_as_xyz
  1  'x, y, z'
loop_
 _atom_site_type_symbol
 _atom_site_label
 _atom_site_symmetry_multiplicity
 _atom_site_fract_x
 _atom_site_fract_y
 _atom_site_fract_z
 _atom_site_occupancy
  Ti  Ti1  1  0.000000  0.000000  0.500000  1.0
  Ti  Ti2  1  0.000000  0.000000  0.000000  1.0
  P  P3  1  0.654167  0.345833  0.250000  1.0
  P  P4  1  0.345833  0.654167  0.750000  1.0
  O  O5  1  0.238183  0.761817  0.557977  1.0
  O  O6  1  0.761817  0.238183  0.057977  1.0
  O  O7  1  0.761817  0.238183  0.442023  1.0
  O  O8  1  0.238183  0.761817  0.942023  1.0
  O  O9  1  0.701392  0.787808  0.750000  1.0
  O  O10  1  0.298608  0.212192  0.250000  1.0
  O  O11  1  0.787808  0.701392  0.250000  1.0
  O  O12  1  0.212192  0.298608  0.750000  1.0
