# generated using pymatgen
data_Ta2CS2
_symmetry_space_group_name_H-M   'P 1'
_cell_length_a   3.28988634
_cell_length_b   3.28988659
_cell_length_c   8.93614563
_cell_angle_alpha   90.00000000
_cell_angle_beta   90.00000000
_cell_angle_gamma   119.99999744
_symmetry_Int_Tables_number   1
_chemical_formula_structural   Ta2CS2
_chemical_formula_sum   'Ta2 C1 S2'
_cell_volume   83.76116358
_cell_formula_units_Z   1
loop_
 _symmetry_equiv_pos_site_id
 _symmetry_equiv_pos_as_xyz
  1  'x, y, z'
loop_
 _atom_site_type_symbol
 _atom_site_label
 _atom_site_symmetry_multiplicity
 _atom_site_fract_x
 _atom_site_fract_y
 _atom_site_fract_z
 _atom_site_occupancy
  Ta  Ta1  1  0.666667  0.333333  0.867412  1.0
  Ta  Ta2  1  0.333333  0.666667  0.132588  1.0
  C  C3  1  0.000000  0.000000  0.000000  1.0
  S  S4  1  0.333333  0.666667  0.685721  1.0
  S  S5  1  0.666667  0.333333  0.314279  1.0
