# generated using pymatgen
data_CaAlSi
_symmetry_space_group_name_H-M   'P 1'
_cell_length_a   4.20560457
_cell_length_b   4.20560520
_cell_length_c   26.28603700
_cell_angle_alpha   90.00000000
_cell_angle_beta   90.00000000
_cell_angle_gamma   120.00000300
_symmetry_Int_Tables_number   1
_chemical_formula_structural   CaAlSi
_chemical_formula_sum   'Ca6 Al6 Si6'
_cell_volume   402.63606255
_cell_formula_units_Z   6
loop_
 _symmetry_equiv_pos_site_id
 _symmetry_equiv_pos_as_xyz
  1  'x, y, z'
loop_
 _atom_site_type_symbol
 _atom_site_label
 _atom_site_symmetry_multiplicity
 _atom_site_fract_x
 _atom_site_fract_y
 _atom_site_fract_z
 _atom_site_occupancy
  Ca  Ca1  1  0.000000  0.000000  0.332874  1.0
  Ca  Ca2  1  0.000000  0.000000  0.832874  1.0
  Ca  Ca3  1  0.000000  0.000000  0.168760  1.0
  Ca  Ca4  1  0.000000  0.000000  0.000635  1.0
  Ca  Ca5  1  0.000000  0.000000  0.668759  1.0
  Ca  Ca6  1  0.000000  0.000000  0.500636  1.0
  Al  Al7  1  0.333333  0.666667  0.409449  1.0
  Al  Al8  1  0.333333  0.666667  0.251557  1.0
  Al  Al9  1  0.333333  0.666667  0.091758  1.0
  Al  Al10  1  0.666667  0.333333  0.909449  1.0
  Al  Al11  1  0.666667  0.333333  0.751557  1.0
  Al  Al12  1  0.666667  0.333333  0.591758  1.0
  Si  Si13  1  0.333333  0.666667  0.578574  1.0
  Si  Si14  1  0.333333  0.666667  0.922567  1.0
  Si  Si15  1  0.333333  0.666667  0.750185  1.0
  Si  Si16  1  0.666667  0.333333  0.250185  1.0
  Si  Si17  1  0.666667  0.333333  0.078574  1.0
  Si  Si18  1  0.666667  0.333333  0.422567  1.0
