# generated using pymatgen
data_Al2HgSe4
_symmetry_space_group_name_H-M   'P 1'
_cell_length_a   5.88064262
_cell_length_b   5.88064262
_cell_length_c   6.86469538
_cell_angle_alpha   115.36131341
_cell_angle_beta   115.36131345
_cell_angle_gamma   89.99999999
_symmetry_Int_Tables_number   1
_chemical_formula_structural   Al2HgSe4
_chemical_formula_sum   'Al2 Hg1 Se4'
_cell_volume   188.88544908
_cell_formula_units_Z   1
loop_
 _symmetry_equiv_pos_site_id
 _symmetry_equiv_pos_as_xyz
  1  'x, y, z'
loop_
 _atom_site_type_symbol
 _atom_site_label
 _atom_site_symmetry_multiplicity
 _atom_site_fract_x
 _atom_site_fract_y
 _atom_site_fract_z
 _atom_site_occupancy
  Al  Al1  1  0.250000  0.750000  0.500000  1.0
  Al  Al2  1  0.500000  0.500000  0.000000  1.0
  Hg  Hg3  1  0.000000  0.000000  0.000000  1.0
  Se  Se4  1  0.131882  0.134489  0.723743  1.0
  Se  Se5  1  0.591861  0.589254  0.723743  1.0
  Se  Se6  1  0.865511  0.408139  0.276257  1.0
  Se  Se7  1  0.410746  0.868118  0.276257  1.0
