# generated using pymatgen
data_Ca(CuSn)2
_symmetry_space_group_name_H-M   'P 1'
_cell_length_a   4.25052016
_cell_length_b   4.87702701
_cell_length_c   5.89430217
_cell_angle_alpha   106.56398390
_cell_angle_beta   111.09488383
_cell_angle_gamma   90.01600999
_symmetry_Int_Tables_number   1
_chemical_formula_structural   Ca(CuSn)2
_chemical_formula_sum   'Ca1 Cu2 Sn2'
_cell_volume   108.54358353
_cell_formula_units_Z   1
loop_
 _symmetry_equiv_pos_site_id
 _symmetry_equiv_pos_as_xyz
  1  'x, y, z'
loop_
 _atom_site_type_symbol
 _atom_site_label
 _atom_site_symmetry_multiplicity
 _atom_site_fract_x
 _atom_site_fract_y
 _atom_site_fract_z
 _atom_site_occupancy
  Ca  Ca1  1  0.000000  0.000000  0.000000  1.0
  Cu  Cu2  1  0.736752  0.133274  0.473491  1.0
  Cu  Cu3  1  0.263248  0.866726  0.526509  1.0
  Sn  Sn4  1  0.356995  0.431824  0.713971  1.0
  Sn  Sn5  1  0.643005  0.568176  0.286029  1.0
