# generated using pymatgen
data_PtN2
_symmetry_space_group_name_H-M   'P 1'
_cell_length_a   3.20025615
_cell_length_b   3.76441458
_cell_length_c   4.87588039
_cell_angle_alpha   90.00000000
_cell_angle_beta   90.00000000
_cell_angle_gamma   90.00000000
_symmetry_Int_Tables_number   1
_chemical_formula_structural   PtN2
_chemical_formula_sum   'Pt2 N4'
_cell_volume   58.74017433
_cell_formula_units_Z   2
loop_
 _symmetry_equiv_pos_site_id
 _symmetry_equiv_pos_as_xyz
  1  'x, y, z'
loop_
 _atom_site_type_symbol
 _atom_site_label
 _atom_site_symmetry_multiplicity
 _atom_site_fract_x
 _atom_site_fract_y
 _atom_site_fract_z
 _atom_site_occupancy
  Pt  Pt1  1  0.000000  0.000000  0.000000  1.0
  Pt  Pt2  1  0.500000  0.500000  0.500000  1.0
  N  N3  1  0.500000  0.350942  0.914890  1.0
  N  N4  1  0.500000  0.649058  0.085110  1.0
  N  N5  1  0.000000  0.149058  0.414890  1.0
  N  N6  1  0.000000  0.850942  0.585110  1.0
