# generated using pymatgen
data_Cs(OsO3)2
_symmetry_space_group_name_H-M   'P 1'
_cell_length_a   7.26930937
_cell_length_b   7.26930912
_cell_length_c   7.26930946
_cell_angle_alpha   59.99999845
_cell_angle_beta   59.99999960
_cell_angle_gamma   59.99999601
_symmetry_Int_Tables_number   1
_chemical_formula_structural   Cs(OsO3)2
_chemical_formula_sum   'Cs2 Os4 O12'
_cell_volume   271.62167902
_cell_formula_units_Z   2
loop_
 _symmetry_equiv_pos_site_id
 _symmetry_equiv_pos_as_xyz
  1  'x, y, z'
loop_
 _atom_site_type_symbol
 _atom_site_label
 _atom_site_symmetry_multiplicity
 _atom_site_fract_x
 _atom_site_fract_y
 _atom_site_fract_z
 _atom_site_occupancy
  Cs  Cs1  1  0.375000  0.375000  0.375000  1.0
  Cs  Cs2  1  0.625000  0.625000  0.625000  1.0
  Os  Os3  1  0.500000  0.000000  0.000000  1.0
  Os  Os4  1  0.000000  0.000000  0.500000  1.0
  Os  Os5  1  0.000000  0.500000  0.000000  1.0
  Os  Os6  1  0.000000  0.000000  0.000000  1.0
  O  O7  1  0.313657  0.313657  0.936343  1.0
  O  O8  1  0.063657  0.063657  0.686343  1.0
  O  O9  1  0.936343  0.313657  0.313657  1.0
  O  O10  1  0.936343  0.936343  0.313657  1.0
  O  O11  1  0.686343  0.063657  0.686343  1.0
  O  O12  1  0.063657  0.686343  0.686343  1.0
  O  O13  1  0.686343  0.063657  0.063657  1.0
  O  O14  1  0.686343  0.686343  0.063657  1.0
  O  O15  1  0.313657  0.936343  0.313657  1.0
  O  O16  1  0.936343  0.313657  0.936343  1.0
  O  O17  1  0.063657  0.686343  0.063657  1.0
  O  O18  1  0.313657  0.936343  0.936343  1.0
