# generated using pymatgen
data_HgIBr
_symmetry_space_group_name_H-M   'P 1'
_cell_length_a   4.53884111
_cell_length_b   4.53884074
_cell_length_c   13.65550979
_cell_angle_alpha   90.00000000
_cell_angle_beta   90.00000000
_cell_angle_gamma   109.44681388
_symmetry_Int_Tables_number   1
_chemical_formula_structural   HgIBr
_chemical_formula_sum   'Hg2 I2 Br2'
_cell_volume   265.26927102
_cell_formula_units_Z   2
loop_
 _symmetry_equiv_pos_site_id
 _symmetry_equiv_pos_as_xyz
  1  'x, y, z'
loop_
 _atom_site_type_symbol
 _atom_site_label
 _atom_site_symmetry_multiplicity
 _atom_site_fract_x
 _atom_site_fract_y
 _atom_site_fract_z
 _atom_site_occupancy
  Hg  Hg1  1  0.825666  0.174334  0.002750  1.0
  Hg  Hg2  1  0.174334  0.825666  0.502750  1.0
  I  I3  1  0.904676  0.095324  0.629599  1.0
  I  I4  1  0.095324  0.904676  0.129599  1.0
  Br  Br5  1  0.577492  0.422508  0.879651  1.0
  Br  Br6  1  0.422508  0.577492  0.379651  1.0
