# generated using pymatgen
data_Re2NiO8
_symmetry_space_group_name_H-M   'P 1'
_cell_length_a   5.75207692
_cell_length_b   5.75207692
_cell_length_c   6.64532530
_cell_angle_alpha   90.00000000
_cell_angle_beta   90.00000000
_cell_angle_gamma   120.00000003
_symmetry_Int_Tables_number   1
_chemical_formula_structural   Re2NiO8
_chemical_formula_sum   'Re2 Ni1 O8'
_cell_volume   190.41284716
_cell_formula_units_Z   1
loop_
 _symmetry_equiv_pos_site_id
 _symmetry_equiv_pos_as_xyz
  1  'x, y, z'
loop_
 _atom_site_type_symbol
 _atom_site_label
 _atom_site_symmetry_multiplicity
 _atom_site_fract_x
 _atom_site_fract_y
 _atom_site_fract_z
 _atom_site_occupancy
  Re  Re1  1  0.333333  0.666667  0.266225  1.0
  Re  Re2  1  0.666667  0.333333  0.733775  1.0
  Ni  Ni3  1  0.000000  0.000000  0.000000  1.0
  O  O4  1  0.666667  0.333333  0.472807  1.0
  O  O5  1  0.333333  0.666667  0.527193  1.0
  O  O6  1  0.814040  0.148797  0.821352  1.0
  O  O7  1  0.148797  0.334758  0.178648  1.0
  O  O8  1  0.665242  0.814040  0.178648  1.0
  O  O9  1  0.185960  0.851203  0.178648  1.0
  O  O10  1  0.851203  0.665242  0.821352  1.0
  O  O11  1  0.334758  0.185960  0.821352  1.0
