# generated using pymatgen
data_Rb2SnBr6
_symmetry_space_group_name_H-M   'P 1'
_cell_length_a   7.78109390
_cell_length_b   7.78109425
_cell_length_c   7.78109447
_cell_angle_alpha   59.99999901
_cell_angle_beta   59.99999754
_cell_angle_gamma   60.00000257
_symmetry_Int_Tables_number   1
_chemical_formula_structural   Rb2SnBr6
_chemical_formula_sum   'Rb2 Sn1 Br6'
_cell_volume   333.12484131
_cell_formula_units_Z   1
loop_
 _symmetry_equiv_pos_site_id
 _symmetry_equiv_pos_as_xyz
  1  'x, y, z'
loop_
 _atom_site_type_symbol
 _atom_site_label
 _atom_site_symmetry_multiplicity
 _atom_site_fract_x
 _atom_site_fract_y
 _atom_site_fract_z
 _atom_site_occupancy
  Rb  Rb1  1  0.250000  0.250000  0.250000  1.0
  Rb  Rb2  1  0.750000  0.750000  0.750000  1.0
  Sn  Sn3  1  0.000000  0.000000  0.000000  1.0
  Br  Br4  1  0.758907  0.241093  0.241093  1.0
  Br  Br5  1  0.241093  0.758907  0.758907  1.0
  Br  Br6  1  0.241093  0.241093  0.758907  1.0
  Br  Br7  1  0.758907  0.241093  0.758907  1.0
  Br  Br8  1  0.758907  0.758907  0.241093  1.0
  Br  Br9  1  0.241093  0.758907  0.241093  1.0
