# generated using pymatgen
data_Ta2O5
_symmetry_space_group_name_H-M   'P 1'
_cell_length_a   3.88433445
_cell_length_b   3.92929543
_cell_length_c   13.04477058
_cell_angle_alpha   90.00527171
_cell_angle_beta   90.00003371
_cell_angle_gamma   89.99994499
_symmetry_Int_Tables_number   1
_chemical_formula_structural   Ta2O5
_chemical_formula_sum   'Ta4 O10'
_cell_volume   199.09838782
_cell_formula_units_Z   2
loop_
 _symmetry_equiv_pos_site_id
 _symmetry_equiv_pos_as_xyz
  1  'x, y, z'
loop_
 _atom_site_type_symbol
 _atom_site_label
 _atom_site_symmetry_multiplicity
 _atom_site_fract_x
 _atom_site_fract_y
 _atom_site_fract_z
 _atom_site_occupancy
  Ta  Ta1  1  0.018574  0.956504  0.146631  1.0
  Ta  Ta2  1  0.518577  0.043493  0.353373  1.0
  Ta  Ta3  1  0.518575  0.043514  0.646519  1.0
  Ta  Ta4  1  0.018573  0.956489  0.853481  1.0
  O  O5  1  0.518567  0.991726  0.184197  1.0
  O  O6  1  0.018566  0.008314  0.315801  1.0
  O  O7  1  0.018565  0.008274  0.684210  1.0
  O  O8  1  0.518564  0.991694  0.815791  1.0
  O  O9  1  0.018570  0.483001  0.851798  1.0
  O  O10  1  0.518569  0.517003  0.648202  1.0
  O  O11  1  0.518569  0.516996  0.351816  1.0
  O  O12  1  0.518575  0.013289  0.500094  1.0
  O  O13  1  0.018573  0.986702  0.999906  1.0
  O  O14  1  0.018574  0.482999  0.148178  1.0
