# generated using pymatgen
data_Cs2PdI6
_symmetry_space_group_name_H-M   'P 1'
_cell_length_a   8.31836103
_cell_length_b   8.31836129
_cell_length_c   8.31836142
_cell_angle_alpha   59.99999946
_cell_angle_beta   59.99999846
_cell_angle_gamma   59.99999746
_symmetry_Int_Tables_number   1
_chemical_formula_structural   Cs2PdI6
_chemical_formula_sum   'Cs2 Pd1 I6'
_cell_volume   407.00366262
_cell_formula_units_Z   1
loop_
 _symmetry_equiv_pos_site_id
 _symmetry_equiv_pos_as_xyz
  1  'x, y, z'
loop_
 _atom_site_type_symbol
 _atom_site_label
 _atom_site_symmetry_multiplicity
 _atom_site_fract_x
 _atom_site_fract_y
 _atom_site_fract_z
 _atom_site_occupancy
  Cs  Cs1  1  0.250000  0.250000  0.250000  1.0
  Cs  Cs2  1  0.750000  0.750000  0.750000  1.0
  Pd  Pd3  1  0.000000  0.000000  0.000000  1.0
  I  I4  1  0.768374  0.768374  0.231626  1.0
  I  I5  1  0.231626  0.768374  0.768374  1.0
  I  I6  1  0.231626  0.768374  0.231626  1.0
  I  I7  1  0.768374  0.231626  0.231626  1.0
  I  I8  1  0.768374  0.231626  0.768374  1.0
  I  I9  1  0.231626  0.231626  0.768374  1.0
