# generated using pymatgen
data_ThBr4
_symmetry_space_group_name_H-M   'P 1'
_cell_length_a   8.42946573
_cell_length_b   8.42946529
_cell_length_c   8.42946519
_cell_angle_alpha   131.14443794
_cell_angle_beta   131.14444645
_cell_angle_gamma   71.58369018
_symmetry_Int_Tables_number   1
_chemical_formula_structural   ThBr4
_chemical_formula_sum   'Th2 Br8'
_cell_volume   332.35877814
_cell_formula_units_Z   2
loop_
 _symmetry_equiv_pos_site_id
 _symmetry_equiv_pos_as_xyz
  1  'x, y, z'
loop_
 _atom_site_type_symbol
 _atom_site_label
 _atom_site_symmetry_multiplicity
 _atom_site_fract_x
 _atom_site_fract_y
 _atom_site_fract_z
 _atom_site_occupancy
  Th  Th1  1  0.375000  0.125000  0.250000  1.0
  Th  Th2  1  0.625000  0.875000  0.750000  1.0
  Br  Br3  1  0.662488  0.535210  0.798580  1.0
  Br  Br4  1  0.363908  0.162488  0.627278  1.0
  Br  Br5  1  0.337512  0.464790  0.201420  1.0
  Br  Br6  1  0.964790  0.263370  0.127278  1.0
  Br  Br7  1  0.035210  0.736630  0.872722  1.0
  Br  Br8  1  0.763370  0.136092  0.298580  1.0
  Br  Br9  1  0.636092  0.837512  0.372722  1.0
  Br  Br10  1  0.236630  0.863908  0.701420  1.0
