# generated using pymatgen
data_LiMnO2
_symmetry_space_group_name_H-M   'P 1'
_cell_length_a   5.76660650
_cell_length_b   5.76660697
_cell_length_c   6.19248087
_cell_angle_alpha   117.74994176
_cell_angle_beta   117.74994425
_cell_angle_gamma   90.00000048
_symmetry_Int_Tables_number   1
_chemical_formula_structural   LiMnO2
_chemical_formula_sum   'Li4 Mn4 O8'
_cell_volume   154.97797573
_cell_formula_units_Z   4
loop_
 _symmetry_equiv_pos_site_id
 _symmetry_equiv_pos_as_xyz
  1  'x, y, z'
loop_
 _atom_site_type_symbol
 _atom_site_label
 _atom_site_symmetry_multiplicity
 _atom_site_fract_x
 _atom_site_fract_y
 _atom_site_fract_z
 _atom_site_occupancy
  Li  Li1  1  0.500000  0.000000  0.000000  1.0
  Li  Li2  1  0.500000  0.500000  0.500000  1.0
  Li  Li3  1  0.500000  0.500000  0.000000  1.0
  Li  Li4  1  0.000000  0.500000  0.500000  1.0
  Mn  Mn5  1  0.000000  0.000000  0.500000  1.0
  Mn  Mn6  1  0.000000  0.500000  0.000000  1.0
  Mn  Mn7  1  0.500000  0.000000  0.500000  1.0
  Mn  Mn8  1  0.000000  0.000000  0.000000  1.0
  O  O9  1  0.250802  0.769958  0.501603  1.0
  O  O10  1  0.231645  0.250802  0.001603  1.0
  O  O11  1  0.749198  0.230042  0.498397  1.0
  O  O12  1  0.749198  0.768355  0.498397  1.0
  O  O13  1  0.230042  0.749198  0.998397  1.0
  O  O14  1  0.768355  0.749198  0.998397  1.0
  O  O15  1  0.769958  0.250802  0.001603  1.0
  O  O16  1  0.250802  0.231645  0.501603  1.0
