# generated using pymatgen
data_CoCu2GeS4
_symmetry_space_group_name_H-M   'P 1'
_cell_length_a   5.27136868
_cell_length_b   5.27131418
_cell_length_c   6.46549277
_cell_angle_alpha   114.05934020
_cell_angle_beta   114.06008768
_cell_angle_gamma   90.00619885
_symmetry_Int_Tables_number   1
_chemical_formula_structural   CoCu2GeS4
_chemical_formula_sum   'Co1 Cu2 Ge1 S4'
_cell_volume   146.78575945
_cell_formula_units_Z   1
loop_
 _symmetry_equiv_pos_site_id
 _symmetry_equiv_pos_as_xyz
  1  'x, y, z'
loop_
 _atom_site_type_symbol
 _atom_site_label
 _atom_site_symmetry_multiplicity
 _atom_site_fract_x
 _atom_site_fract_y
 _atom_site_fract_z
 _atom_site_occupancy
  Co  Co1  1  0.999952  0.999949  0.999947  1.0
  Cu  Cu2  1  0.250001  0.749999  0.499982  1.0
  Cu  Cu3  1  0.749990  0.249995  0.499996  1.0
  Ge  Ge4  1  0.499993  0.499992  0.000009  1.0
  S  S5  1  0.628605  0.121421  0.750016  1.0
  S  S6  1  0.121430  0.628611  0.750013  1.0
  S  S7  1  0.371445  0.371453  0.250018  1.0
  S  S8  1  0.878584  0.878580  0.250018  1.0
