# generated using pymatgen
data_VCuO3
_symmetry_space_group_name_H-M   'P 1'
_cell_length_a   5.01025463
_cell_length_b   5.91448289
_cell_length_c   5.61830189
_cell_angle_alpha   62.38078673
_cell_angle_beta   69.76698675
_cell_angle_gamma   33.00841402
_symmetry_Int_Tables_number   1
_chemical_formula_structural   VCuO3
_chemical_formula_sum   'V1 Cu1 O3'
_cell_volume   80.04270054
_cell_formula_units_Z   1
loop_
 _symmetry_equiv_pos_site_id
 _symmetry_equiv_pos_as_xyz
  1  'x, y, z'
loop_
 _atom_site_type_symbol
 _atom_site_label
 _atom_site_symmetry_multiplicity
 _atom_site_fract_x
 _atom_site_fract_y
 _atom_site_fract_z
 _atom_site_occupancy
  V  V1  1  0.047497  0.607943  0.136666  1.0
  Cu  Cu2  1  0.107766  0.935294  0.441526  1.0
  O  O3  1  0.383407  0.553470  0.246103  1.0
  O  O4  1  0.992196  0.796077  0.797828  1.0
  O  O5  1  0.424133  0.037916  0.255777  1.0
