# generated using pymatgen
data_Sr3FeN3
_symmetry_space_group_name_H-M   'P 1'
_cell_length_a   7.64266242
_cell_length_b   7.64266207
_cell_length_c   5.32375968
_cell_angle_alpha   90.00000000
_cell_angle_beta   90.00000000
_cell_angle_gamma   120.00000146
_symmetry_Int_Tables_number   1
_chemical_formula_structural   Sr3FeN3
_chemical_formula_sum   'Sr6 Fe2 N6'
_cell_volume   269.30127043
_cell_formula_units_Z   2
loop_
 _symmetry_equiv_pos_site_id
 _symmetry_equiv_pos_as_xyz
  1  'x, y, z'
loop_
 _atom_site_type_symbol
 _atom_site_label
 _atom_site_symmetry_multiplicity
 _atom_site_fract_x
 _atom_site_fract_y
 _atom_site_fract_z
 _atom_site_occupancy
  Sr  Sr1  1  0.725804  0.086135  0.250000  1.0
  Sr  Sr2  1  0.639669  0.725804  0.750000  1.0
  Sr  Sr3  1  0.086135  0.360331  0.750000  1.0
  Sr  Sr4  1  0.913865  0.639669  0.250000  1.0
  Sr  Sr5  1  0.360331  0.274196  0.250000  1.0
  Sr  Sr6  1  0.274196  0.913865  0.750000  1.0
  Fe  Fe7  1  0.333333  0.666667  0.250000  1.0
  Fe  Fe8  1  0.666667  0.333333  0.750000  1.0
  N  N9  1  0.687008  0.115648  0.750000  1.0
  N  N10  1  0.571360  0.687008  0.250000  1.0
  N  N11  1  0.115648  0.428640  0.250000  1.0
  N  N12  1  0.884352  0.571360  0.750000  1.0
  N  N13  1  0.428640  0.312992  0.750000  1.0
  N  N14  1  0.312992  0.884352  0.250000  1.0
