# generated using pymatgen
data_Tb2Mg3Ni2
_symmetry_space_group_name_H-M   'P 1'
_cell_length_a   3.63011881
_cell_length_b   3.95453451
_cell_length_c   10.73055658
_cell_angle_alpha   100.61828752
_cell_angle_beta   90.00000000
_cell_angle_gamma   90.00000000
_symmetry_Int_Tables_number   1
_chemical_formula_structural   Tb2Mg3Ni2
_chemical_formula_sum   'Tb2 Mg3 Ni2'
_cell_volume   151.40403427
_cell_formula_units_Z   1
loop_
 _symmetry_equiv_pos_site_id
 _symmetry_equiv_pos_as_xyz
  1  'x, y, z'
loop_
 _atom_site_type_symbol
 _atom_site_label
 _atom_site_symmetry_multiplicity
 _atom_site_fract_x
 _atom_site_fract_y
 _atom_site_fract_z
 _atom_site_occupancy
  Tb  Tb1  1  0.000000  0.176477  0.352955  1.0
  Tb  Tb2  1  0.000000  0.823523  0.647045  1.0
  Mg  Mg3  1  0.500000  0.579989  0.159978  1.0
  Mg  Mg4  1  0.500000  0.420011  0.840022  1.0
  Mg  Mg5  1  0.000000  0.000000  0.000000  1.0
  Ni  Ni6  1  0.500000  0.713088  0.426177  1.0
  Ni  Ni7  1  0.500000  0.286912  0.573823  1.0
