# generated using pymatgen
data_ZnS
_symmetry_space_group_name_H-M   'P 1'
_cell_length_a   9.70807868
_cell_length_b   9.70807877
_cell_length_c   9.70807822
_cell_angle_alpha   22.88968330
_cell_angle_beta   22.88968190
_cell_angle_gamma   22.88968040
_symmetry_Int_Tables_number   1
_chemical_formula_structural   ZnS
_chemical_formula_sum   'Zn3 S3'
_cell_volume   121.47064399
_cell_formula_units_Z   3
loop_
 _symmetry_equiv_pos_site_id
 _symmetry_equiv_pos_as_xyz
  1  'x, y, z'
loop_
 _atom_site_type_symbol
 _atom_site_label
 _atom_site_symmetry_multiplicity
 _atom_site_fract_x
 _atom_site_fract_y
 _atom_site_fract_z
 _atom_site_occupancy
  Zn  Zn1  1  0.999989  0.999989  0.999989  1.0
  Zn  Zn2  1  0.222228  0.222228  0.222228  1.0
  Zn  Zn3  1  0.444445  0.444445  0.444445  1.0
  S  S4  1  0.083333  0.083333  0.083333  1.0
  S  S5  1  0.527805  0.527805  0.527805  1.0
  S  S6  1  0.305525  0.305525  0.305525  1.0
