# generated using pymatgen
data_SiB3
_symmetry_space_group_name_H-M   'P 1'
_cell_length_a   6.22321633
_cell_length_b   8.17498212
_cell_length_c   8.17498184
_cell_angle_alpha   61.66695999
_cell_angle_beta   67.62755466
_cell_angle_gamma   67.62755378
_symmetry_Int_Tables_number   1
_chemical_formula_structural   SiB3
_chemical_formula_sum   'Si8 B24'
_cell_volume   328.14503519
_cell_formula_units_Z   8
loop_
 _symmetry_equiv_pos_site_id
 _symmetry_equiv_pos_as_xyz
  1  'x, y, z'
loop_
 _atom_site_type_symbol
 _atom_site_label
 _atom_site_symmetry_multiplicity
 _atom_site_fract_x
 _atom_site_fract_y
 _atom_site_fract_z
 _atom_site_occupancy
  Si  Si1  1  0.313871  0.480662  0.019338  1.0
  Si  Si2  1  0.686129  0.980662  0.519338  1.0
  Si  Si3  1  0.847750  0.154462  0.154462  1.0
  Si  Si4  1  0.313871  0.019338  0.480662  1.0
  Si  Si5  1  0.686129  0.519338  0.980662  1.0
  Si  Si6  1  0.656675  0.345538  0.345538  1.0
  Si  Si7  1  0.343325  0.654462  0.654462  1.0
  Si  Si8  1  0.152250  0.845538  0.845538  1.0
  B  B9  1  0.149223  0.574249  0.574249  1.0
  B  B10  1  0.115080  0.498184  0.276997  1.0
  B  B11  1  0.609739  0.998184  0.776997  1.0
  B  B12  1  0.884920  0.501816  0.723003  1.0
  B  B13  1  0.850777  0.425751  0.425751  1.0
  B  B14  1  0.884920  0.723003  0.501816  1.0
  B  B15  1  0.153555  0.676586  0.326597  1.0
  B  B16  1  0.656738  0.823414  0.173403  1.0
  B  B17  1  0.343262  0.176586  0.826597  1.0
  B  B18  1  0.202279  0.074249  0.074249  1.0
  B  B19  1  0.609739  0.776997  0.998184  1.0
  B  B20  1  0.846445  0.673403  0.323414  1.0
  B  B21  1  0.846445  0.323414  0.673403  1.0
  B  B22  1  0.115080  0.276997  0.498184  1.0
  B  B23  1  0.340809  0.930889  0.930889  1.0
  B  B24  1  0.702587  0.569111  0.569111  1.0
  B  B25  1  0.656738  0.173403  0.823414  1.0
  B  B26  1  0.390261  0.001816  0.223003  1.0
  B  B27  1  0.153555  0.326597  0.676586  1.0
  B  B28  1  0.659191  0.069111  0.069111  1.0
  B  B29  1  0.297413  0.430889  0.430889  1.0
  B  B30  1  0.390261  0.223003  0.001816  1.0
  B  B31  1  0.797721  0.925751  0.925751  1.0
  B  B32  1  0.343262  0.826597  0.176586  1.0
