# generated using pymatgen
data_TbCl2F
_symmetry_space_group_name_H-M   'P 1'
_cell_length_a   5.34969845
_cell_length_b   5.34969868
_cell_length_c   6.86129989
_cell_angle_alpha   73.66071727
_cell_angle_beta   73.66071656
_cell_angle_gamma   66.39327450
_symmetry_Int_Tables_number   1
_chemical_formula_structural   TbCl2F
_chemical_formula_sum   'Tb2 Cl4 F2'
_cell_volume   169.45943606
_cell_formula_units_Z   2
loop_
 _symmetry_equiv_pos_site_id
 _symmetry_equiv_pos_as_xyz
  1  'x, y, z'
loop_
 _atom_site_type_symbol
 _atom_site_label
 _atom_site_symmetry_multiplicity
 _atom_site_fract_x
 _atom_site_fract_y
 _atom_site_fract_z
 _atom_site_occupancy
  Tb  Tb1  1  0.232966  0.767034  0.750000  1.0
  Tb  Tb2  1  0.767034  0.232966  0.250000  1.0
  Cl  Cl3  1  0.338963  0.283440  0.606011  1.0
  Cl  Cl4  1  0.661037  0.716560  0.393989  1.0
  Cl  Cl5  1  0.283440  0.338963  0.106010  1.0
  Cl  Cl6  1  0.716560  0.661037  0.893989  1.0
  F  F7  1  0.000000  0.000000  0.000000  1.0
  F  F8  1  0.000000  0.000000  0.500000  1.0
