# generated using pymatgen
data_MoO2
_symmetry_space_group_name_H-M   'P 1'
_cell_length_a   6.50608140
_cell_length_b   6.39065108
_cell_length_c   6.24051164
_cell_angle_alpha   61.73028088
_cell_angle_beta   60.72333445
_cell_angle_gamma   57.78191405
_symmetry_Int_Tables_number   1
_chemical_formula_structural   MoO2
_chemical_formula_sum   'Mo4 O8'
_cell_volume   183.33606532
_cell_formula_units_Z   4
loop_
 _symmetry_equiv_pos_site_id
 _symmetry_equiv_pos_as_xyz
  1  'x, y, z'
loop_
 _atom_site_type_symbol
 _atom_site_label
 _atom_site_symmetry_multiplicity
 _atom_site_fract_x
 _atom_site_fract_y
 _atom_site_fract_z
 _atom_site_occupancy
  Mo  Mo1  1  0.499989  0.500015  0.500012  1.0
  Mo  Mo2  1  0.500008  0.999987  0.500010  1.0
  Mo  Mo3  1  0.999986  0.500002  0.499996  1.0
  Mo  Mo4  1  0.500016  0.499997  0.999985  1.0
  O  O5  1  0.731159  0.719930  0.310302  1.0
  O  O6  1  0.721490  0.727571  0.740266  1.0
  O  O7  1  0.268826  0.280084  0.689707  1.0
  O  O8  1  0.263591  0.688645  0.278732  1.0
  O  O9  1  0.278531  0.272409  0.259724  1.0
  O  O10  1  0.689640  0.258941  0.269936  1.0
  O  O11  1  0.736389  0.311368  0.721264  1.0
  O  O12  1  0.310380  0.741052  0.730068  1.0
