# generated using pymatgen
data_SnCl2
_symmetry_space_group_name_H-M   'P 1'
_cell_length_a   4.35374266
_cell_length_b   8.04588538
_cell_length_c   10.05593603
_cell_angle_alpha   90.00000000
_cell_angle_beta   90.00000000
_cell_angle_gamma   90.00000000
_symmetry_Int_Tables_number   1
_chemical_formula_structural   SnCl2
_chemical_formula_sum   'Sn4 Cl8'
_cell_volume   352.25656732
_cell_formula_units_Z   4
loop_
 _symmetry_equiv_pos_site_id
 _symmetry_equiv_pos_as_xyz
  1  'x, y, z'
loop_
 _atom_site_type_symbol
 _atom_site_label
 _atom_site_symmetry_multiplicity
 _atom_site_fract_x
 _atom_site_fract_y
 _atom_site_fract_z
 _atom_site_occupancy
  Sn  Sn1  1  0.750000  0.771487  0.551234  1.0
  Sn  Sn2  1  0.250000  0.228513  0.448766  1.0
  Sn  Sn3  1  0.250000  0.728513  0.051234  1.0
  Sn  Sn4  1  0.750000  0.271487  0.948766  1.0
  Cl  Cl5  1  0.250000  0.509227  0.857338  1.0
  Cl  Cl6  1  0.250000  0.147129  0.088569  1.0
  Cl  Cl7  1  0.250000  0.009227  0.642662  1.0
  Cl  Cl8  1  0.750000  0.490773  0.142662  1.0
  Cl  Cl9  1  0.750000  0.852871  0.911431  1.0
  Cl  Cl10  1  0.750000  0.352871  0.588569  1.0
  Cl  Cl11  1  0.250000  0.647129  0.411431  1.0
  Cl  Cl12  1  0.750000  0.990773  0.357338  1.0
