# generated using pymatgen
data_Nb4N3
_symmetry_space_group_name_H-M   'P 1'
_cell_length_a   4.42921056
_cell_length_b   4.42921088
_cell_length_c   5.36496593
_cell_angle_alpha   114.38023511
_cell_angle_beta   114.38023698
_cell_angle_gamma   89.99999518
_symmetry_Int_Tables_number   1
_chemical_formula_structural   Nb4N3
_chemical_formula_sum   'Nb4 N3'
_cell_volume   85.45373019
_cell_formula_units_Z   1
loop_
 _symmetry_equiv_pos_site_id
 _symmetry_equiv_pos_as_xyz
  1  'x, y, z'
loop_
 _atom_site_type_symbol
 _atom_site_label
 _atom_site_symmetry_multiplicity
 _atom_site_fract_x
 _atom_site_fract_y
 _atom_site_fract_z
 _atom_site_occupancy
  Nb  Nb1  1  0.500000  0.000000  0.000000  1.0
  Nb  Nb2  1  0.746122  0.746122  0.492245  1.0
  Nb  Nb3  1  0.253878  0.253878  0.507755  1.0
  Nb  Nb4  1  0.000000  0.500000  0.000000  1.0
  N  N5  1  0.750000  0.250000  0.500000  1.0
  N  N6  1  0.250000  0.750000  0.500000  1.0
  N  N7  1  0.000000  0.000000  0.000000  1.0
