# generated using pymatgen
data_CaTe
_symmetry_space_group_name_H-M   'P 1'
_cell_length_a   4.48236901
_cell_length_b   7.66067740
_cell_length_c   7.71069655
_cell_angle_alpha   90.00000000
_cell_angle_beta   90.00000000
_cell_angle_gamma   90.00000000
_symmetry_Int_Tables_number   1
_chemical_formula_structural   CaTe
_chemical_formula_sum   'Ca4 Te4'
_cell_volume   264.76976685
_cell_formula_units_Z   4
loop_
 _symmetry_equiv_pos_site_id
 _symmetry_equiv_pos_as_xyz
  1  'x, y, z'
loop_
 _atom_site_type_symbol
 _atom_site_label
 _atom_site_symmetry_multiplicity
 _atom_site_fract_x
 _atom_site_fract_y
 _atom_site_fract_z
 _atom_site_occupancy
  Ca  Ca1  1  0.250000  0.498277  0.752655  1.0
  Ca  Ca2  1  0.750000  0.501723  0.247345  1.0
  Ca  Ca3  1  0.250000  0.998277  0.747345  1.0
  Ca  Ca4  1  0.750000  0.001723  0.252655  1.0
  Te  Te5  1  0.250000  0.752341  0.083535  1.0
  Te  Te6  1  0.750000  0.247659  0.916465  1.0
  Te  Te7  1  0.250000  0.252341  0.416465  1.0
  Te  Te8  1  0.750000  0.747659  0.583535  1.0
