# generated using pymatgen
data_Y2S3
_symmetry_space_group_name_H-M   'P 1'
_cell_length_a   4.04419385
_cell_length_b   10.23405244
_cell_length_c   17.67181206
_cell_angle_alpha   98.65912911
_cell_angle_beta   90.00000000
_cell_angle_gamma   90.00000000
_symmetry_Int_Tables_number   1
_chemical_formula_structural   Y2S3
_chemical_formula_sum   'Y12 S18'
_cell_volume   723.07270326
_cell_formula_units_Z   6
loop_
 _symmetry_equiv_pos_site_id
 _symmetry_equiv_pos_as_xyz
  1  'x, y, z'
loop_
 _atom_site_type_symbol
 _atom_site_label
 _atom_site_symmetry_multiplicity
 _atom_site_fract_x
 _atom_site_fract_y
 _atom_site_fract_z
 _atom_site_occupancy
  Y  Y1  1  0.250000  0.189168  0.020666  1.0
  Y  Y2  1  0.750000  0.810832  0.979334  1.0
  Y  Y3  1  0.250000  0.124510  0.430144  1.0
  Y  Y4  1  0.750000  0.875490  0.569856  1.0
  Y  Y5  1  0.250000  0.829185  0.781067  1.0
  Y  Y6  1  0.750000  0.170815  0.218933  1.0
  Y  Y7  1  0.250000  0.187265  0.720466  1.0
  Y  Y8  1  0.750000  0.812735  0.279534  1.0
  Y  Y9  1  0.250000  0.486438  0.398811  1.0
  Y  Y10  1  0.750000  0.513562  0.601189  1.0
  Y  Y11  1  0.250000  0.549553  0.115085  1.0
  Y  Y12  1  0.750000  0.450447  0.884915  1.0
  S  S13  1  0.250000  0.051400  0.575160  1.0
  S  S14  1  0.750000  0.948600  0.424840  1.0
  S  S15  1  0.250000  0.268217  0.873161  1.0
  S  S16  1  0.750000  0.731783  0.126839  1.0
  S  S17  1  0.250000  0.615017  0.966618  1.0
  S  S18  1  0.750000  0.384983  0.033382  1.0
  S  S19  1  0.250000  0.638270  0.281569  1.0
  S  S20  1  0.750000  0.361730  0.718431  1.0
  S  S21  1  0.250000  0.007476  0.268105  1.0
  S  S22  1  0.750000  0.992524  0.731895  1.0
  S  S23  1  0.250000  0.710472  0.630232  1.0
  S  S24  1  0.750000  0.289528  0.369768  1.0
  S  S25  1  0.250000  0.950664  0.924267  1.0
  S  S26  1  0.750000  0.049336  0.075733  1.0
  S  S27  1  0.250000  0.320461  0.183433  1.0
  S  S28  1  0.750000  0.679539  0.816567  1.0
  S  S29  1  0.250000  0.367714  0.531931  1.0
  S  S30  1  0.750000  0.632286  0.468069  1.0
