# generated using pymatgen
data_Rb2V2Cu(PO6)2
_symmetry_space_group_name_H-M   'P 1'
_cell_length_a   5.06662397
_cell_length_b   9.64248345
_cell_length_c   11.63704781
_cell_angle_alpha   90.00000000
_cell_angle_beta   90.00000000
_cell_angle_gamma   93.87991398
_symmetry_Int_Tables_number   1
_chemical_formula_structural   Rb2V2Cu(PO6)2
_chemical_formula_sum   'Rb4 V4 Cu2 P4 O24'
_cell_volume   567.22305613
_cell_formula_units_Z   2
loop_
 _symmetry_equiv_pos_site_id
 _symmetry_equiv_pos_as_xyz
  1  'x, y, z'
loop_
 _atom_site_type_symbol
 _atom_site_label
 _atom_site_symmetry_multiplicity
 _atom_site_fract_x
 _atom_site_fract_y
 _atom_site_fract_z
 _atom_site_occupancy
  Rb  Rb1  1  0.440942  0.105724  0.364680  1.0
  Rb  Rb2  1  0.559058  0.894276  0.635320  1.0
  Rb  Rb3  1  0.559058  0.394276  0.864680  1.0
  Rb  Rb4  1  0.440942  0.605724  0.135320  1.0
  V  V5  1  0.054513  0.749576  0.885320  1.0
  V  V6  1  0.945487  0.250424  0.114680  1.0
  V  V7  1  0.945487  0.750424  0.385320  1.0
  V  V8  1  0.054513  0.249576  0.614680  1.0
  Cu  Cu9  1  0.500000  0.000000  0.000000  1.0
  Cu  Cu10  1  0.500000  0.500000  0.500000  1.0
  P  P11  1  0.011060  0.082621  0.862684  1.0
  P  P12  1  0.988940  0.917379  0.137316  1.0
  P  P13  1  0.988940  0.417379  0.362684  1.0
  P  P14  1  0.011060  0.582621  0.637316  1.0
  O  O15  1  0.069014  0.070149  0.171785  1.0
  O  O16  1  0.067568  0.320336  0.264627  1.0
  O  O17  1  0.101268  0.864766  0.471947  1.0
  O  O18  1  0.631499  0.285096  0.126349  1.0
  O  O19  1  0.898732  0.135234  0.528053  1.0
  O  O20  1  0.898732  0.635234  0.971947  1.0
  O  O21  1  0.835839  0.118822  0.969611  1.0
  O  O22  1  0.930986  0.429851  0.671785  1.0
  O  O23  1  0.932432  0.679664  0.735373  1.0
  O  O24  1  0.835839  0.618822  0.530389  1.0
  O  O25  1  0.691732  0.393974  0.389838  1.0
  O  O26  1  0.164161  0.381178  0.469611  1.0
  O  O27  1  0.067568  0.820336  0.235373  1.0
  O  O28  1  0.164161  0.881178  0.030389  1.0
  O  O29  1  0.631499  0.785096  0.373651  1.0
  O  O30  1  0.308268  0.106026  0.889838  1.0
  O  O31  1  0.101268  0.364766  0.028053  1.0
  O  O32  1  0.691732  0.893974  0.110162  1.0
  O  O33  1  0.368501  0.214904  0.626349  1.0
  O  O34  1  0.368501  0.714904  0.873651  1.0
  O  O35  1  0.930986  0.929851  0.828215  1.0
  O  O36  1  0.308268  0.606026  0.610162  1.0
  O  O37  1  0.069014  0.570149  0.328215  1.0
  O  O38  1  0.932432  0.179664  0.764627  1.0
