# generated using pymatgen
data_WBr4O
_symmetry_space_group_name_H-M   'P 1'
_cell_length_a   3.84410195
_cell_length_b   7.36225335
_cell_length_c   7.36225323
_cell_angle_alpha   86.09188472
_cell_angle_beta   74.86654036
_cell_angle_gamma   74.86653524
_symmetry_Int_Tables_number   1
_chemical_formula_structural   WBr4O
_chemical_formula_sum   'W1 Br4 O1'
_cell_volume   194.15979622
_cell_formula_units_Z   1
loop_
 _symmetry_equiv_pos_site_id
 _symmetry_equiv_pos_as_xyz
  1  'x, y, z'
loop_
 _atom_site_type_symbol
 _atom_site_label
 _atom_site_symmetry_multiplicity
 _atom_site_fract_x
 _atom_site_fract_y
 _atom_site_fract_z
 _atom_site_occupancy
  W  W1  1  0.025612  0.000000  0.000000  1.0
  Br  Br2  1  0.256559  0.819752  0.698004  1.0
  Br  Br3  1  0.774317  0.180248  0.301995  1.0
  Br  Br4  1  0.076312  0.698004  0.180248  1.0
  Br  Br5  1  0.954564  0.301996  0.819751  1.0
  O  O6  1  0.519538  0.000000  0.000000  1.0
