# generated using pymatgen
data_SrCu2O3
_symmetry_space_group_name_H-M   'P 1'
_cell_length_a   3.56335091
_cell_length_b   3.97483383
_cell_length_c   11.57233226
_cell_angle_alpha   90.00000000
_cell_angle_beta   90.00000000
_cell_angle_gamma   90.00000000
_symmetry_Int_Tables_number   1
_chemical_formula_structural   SrCu2O3
_chemical_formula_sum   'Sr2 Cu4 O6'
_cell_volume   163.90736351
_cell_formula_units_Z   2
loop_
 _symmetry_equiv_pos_site_id
 _symmetry_equiv_pos_as_xyz
  1  'x, y, z'
loop_
 _atom_site_type_symbol
 _atom_site_label
 _atom_site_symmetry_multiplicity
 _atom_site_fract_x
 _atom_site_fract_y
 _atom_site_fract_z
 _atom_site_occupancy
  Sr  Sr1  1  0.483142  0.750000  0.750000  1.0
  Sr  Sr2  1  0.516858  0.250000  0.250000  1.0
  Cu  Cu3  1  0.012440  0.750000  0.084987  1.0
  Cu  Cu4  1  0.987560  0.250000  0.915013  1.0
  Cu  Cu5  1  0.012440  0.750000  0.415013  1.0
  Cu  Cu6  1  0.987560  0.250000  0.584987  1.0
  O  O7  1  0.967668  0.250000  0.750000  1.0
  O  O8  1  0.032332  0.750000  0.250000  1.0
  O  O9  1  0.991097  0.750000  0.579774  1.0
  O  O10  1  0.991097  0.750000  0.920226  1.0
  O  O11  1  0.008903  0.250000  0.079774  1.0
  O  O12  1  0.008903  0.250000  0.420226  1.0
