# generated using pymatgen
data_Te
_symmetry_space_group_name_H-M   'P 1'
_cell_length_a   6.00456245
_cell_length_b   4.31285591
_cell_length_c   4.37819256
_cell_angle_alpha   119.50755641
_cell_angle_beta   90.68595700
_cell_angle_gamma   90.00001045
_symmetry_Int_Tables_number   1
_chemical_formula_structural   Te
_chemical_formula_sum   Te3
_cell_volume   98.66530045
_cell_formula_units_Z   3
loop_
 _symmetry_equiv_pos_site_id
 _symmetry_equiv_pos_as_xyz
  1  'x, y, z'
loop_
 _atom_site_type_symbol
 _atom_site_label
 _atom_site_symmetry_multiplicity
 _atom_site_fract_x
 _atom_site_fract_y
 _atom_site_fract_z
 _atom_site_occupancy
  Te  Te1  1  0.662325  0.686771  0.373541  1.0
  Te  Te2  1  0.337675  0.313229  0.626459  1.0
  Te  Te3  1  0.000000  0.000000  0.000000  1.0
