# generated using pymatgen
data_LaCo5
_symmetry_space_group_name_H-M   'P 1'
_cell_length_a   5.03909580
_cell_length_b   5.03909576
_cell_length_c   7.90058613
_cell_angle_alpha   90.00000000
_cell_angle_beta   90.00000000
_cell_angle_gamma   119.58073388
_symmetry_Int_Tables_number   1
_chemical_formula_structural   LaCo5
_chemical_formula_sum   'La2 Co10'
_cell_volume   174.46749237
_cell_formula_units_Z   2
loop_
 _symmetry_equiv_pos_site_id
 _symmetry_equiv_pos_as_xyz
  1  'x, y, z'
loop_
 _atom_site_type_symbol
 _atom_site_label
 _atom_site_symmetry_multiplicity
 _atom_site_fract_x
 _atom_site_fract_y
 _atom_site_fract_z
 _atom_site_occupancy
  La  La1  1  0.000000  0.000000  0.500000  1.0
  La  La2  1  0.000000  0.000000  0.000000  1.0
  Co  Co3  1  0.629164  0.305504  0.000000  1.0
  Co  Co4  1  0.000000  0.500000  0.760328  1.0
  Co  Co5  1  0.305504  0.629164  0.500000  1.0
  Co  Co6  1  0.694496  0.370836  0.500000  1.0
  Co  Co7  1  0.370836  0.694496  0.000000  1.0
  Co  Co8  1  0.500000  0.000000  0.260328  1.0
  Co  Co9  1  0.500000  0.000000  0.739672  1.0
  Co  Co10  1  0.000000  0.500000  0.239672  1.0
  Co  Co11  1  0.500000  0.500000  0.750000  1.0
  Co  Co12  1  0.500000  0.500000  0.250000  1.0
