# generated using pymatgen
data_MgF2
_symmetry_space_group_name_H-M   'P 1'
_cell_length_a   3.93888886
_cell_length_b   5.56812453
_cell_length_c   5.68902361
_cell_angle_alpha   106.14985731
_cell_angle_beta   70.36060451
_cell_angle_gamma   110.09908848
_symmetry_Int_Tables_number   1
_chemical_formula_structural   MgF2
_chemical_formula_sum   'Mg2 F4'
_cell_volume   108.47569543
_cell_formula_units_Z   2
loop_
 _symmetry_equiv_pos_site_id
 _symmetry_equiv_pos_as_xyz
  1  'x, y, z'
loop_
 _atom_site_type_symbol
 _atom_site_label
 _atom_site_symmetry_multiplicity
 _atom_site_fract_x
 _atom_site_fract_y
 _atom_site_fract_z
 _atom_site_occupancy
  Mg  Mg1  1  0.895403  0.644782  0.849133  1.0
  Mg  Mg2  1  0.104597  0.355218  0.150867  1.0
  F  F3  1  0.652372  0.406496  0.104055  1.0
  F  F4  1  0.000000  0.500000  0.500000  1.0
  F  F5  1  0.347628  0.593504  0.895945  1.0
  F  F6  1  0.000000  0.000000  0.000000  1.0
