# generated using pymatgen
data_Li2PdO2
_symmetry_space_group_name_H-M   'P 1'
_cell_length_a   3.03405615
_cell_length_b   3.82746870
_cell_length_c   5.26008096
_cell_angle_alpha   111.34713808
_cell_angle_beta   106.77185208
_cell_angle_gamma   89.99810389
_symmetry_Int_Tables_number   1
_chemical_formula_structural   Li2PdO2
_chemical_formula_sum   'Li2 Pd1 O2'
_cell_volume   54.09405384
_cell_formula_units_Z   1
loop_
 _symmetry_equiv_pos_site_id
 _symmetry_equiv_pos_as_xyz
  1  'x, y, z'
loop_
 _atom_site_type_symbol
 _atom_site_label
 _atom_site_symmetry_multiplicity
 _atom_site_fract_x
 _atom_site_fract_y
 _atom_site_fract_z
 _atom_site_occupancy
  Li  Li1  1  0.697003  0.697063  0.394098  1.0
  Li  Li2  1  0.302998  0.302937  0.605902  1.0
  Pd  Pd3  1  0.000000  0.000000  0.000000  1.0
  O  O4  1  0.650406  0.150300  0.300683  1.0
  O  O5  1  0.349594  0.849700  0.699317  1.0
