# generated using pymatgen
data_TaNi3
_symmetry_space_group_name_H-M   'P 1'
_cell_length_a   3.62880850
_cell_length_b   3.62880883
_cell_length_c   4.53760425
_cell_angle_alpha   113.60605157
_cell_angle_beta   113.60604423
_cell_angle_gamma   89.92262318
_symmetry_Int_Tables_number   1
_chemical_formula_structural   TaNi3
_chemical_formula_sum   'Ta1 Ni3'
_cell_volume   49.26279405
_cell_formula_units_Z   1
loop_
 _symmetry_equiv_pos_site_id
 _symmetry_equiv_pos_as_xyz
  1  'x, y, z'
loop_
 _atom_site_type_symbol
 _atom_site_label
 _atom_site_symmetry_multiplicity
 _atom_site_fract_x
 _atom_site_fract_y
 _atom_site_fract_z
 _atom_site_occupancy
  Ta  Ta1  1  0.000000  0.000000  0.000000  1.0
  Ni  Ni2  1  0.500000  0.500000  0.000000  1.0
  Ni  Ni3  1  0.749977  0.250023  0.500000  1.0
  Ni  Ni4  1  0.250023  0.749977  0.500000  1.0
