# generated using pymatgen
data_Na(VS2)2
_symmetry_space_group_name_H-M   'P 1'
_cell_length_a   7.23362492
_cell_length_b   14.72615669
_cell_length_c   14.32978942
_cell_angle_alpha   13.32357516
_cell_angle_beta   23.46843918
_cell_angle_gamma   26.79944230
_symmetry_Int_Tables_number   1
_chemical_formula_structural   Na(VS2)2
_chemical_formula_sum   'Na1 V2 S4'
_cell_volume   140.09133761
_cell_formula_units_Z   1
loop_
 _symmetry_equiv_pos_site_id
 _symmetry_equiv_pos_as_xyz
  1  'x, y, z'
loop_
 _atom_site_type_symbol
 _atom_site_label
 _atom_site_symmetry_multiplicity
 _atom_site_fract_x
 _atom_site_fract_y
 _atom_site_fract_z
 _atom_site_occupancy
  Na  Na1  1  0.818619  0.500000  0.841155  1.0
  V  V2  1  0.055821  0.000000  0.973841  1.0
  V  V3  1  0.953266  0.500000  0.030288  1.0
  S  S4  1  0.424738  0.000000  0.383723  1.0
  S  S5  1  0.590372  0.000000  0.603458  1.0
  S  S6  1  0.420727  0.500000  0.398129  1.0
  S  S7  1  0.586457  0.500000  0.619407  1.0
