# generated using pymatgen
data_VSbO4
_symmetry_space_group_name_H-M   'P 1'
_cell_length_a   5.64388585
_cell_length_b   5.64388523
_cell_length_c   5.64388604
_cell_angle_alpha   108.16525672
_cell_angle_beta   108.16525464
_cell_angle_gamma   112.11595996
_symmetry_Int_Tables_number   1
_chemical_formula_structural   VSbO4
_chemical_formula_sum   'V2 Sb2 O8'
_cell_volume   138.17029325
_cell_formula_units_Z   2
loop_
 _symmetry_equiv_pos_site_id
 _symmetry_equiv_pos_as_xyz
  1  'x, y, z'
loop_
 _atom_site_type_symbol
 _atom_site_label
 _atom_site_symmetry_multiplicity
 _atom_site_fract_x
 _atom_site_fract_y
 _atom_site_fract_z
 _atom_site_occupancy
  V  V1  1  0.992803  0.992803  0.000000  1.0
  V  V2  1  0.742803  0.242803  0.500000  1.0
  Sb  Sb3  1  0.506562  0.506562  0.000000  1.0
  Sb  Sb4  1  0.256562  0.756562  0.500000  1.0
  O  O5  1  0.297766  0.995316  0.302449  1.0
  O  O6  1  0.745316  0.942867  0.197551  1.0
  O  O7  1  0.745316  0.547766  0.802449  1.0
  O  O8  1  0.692867  0.995316  0.697551  1.0
  O  O9  1  0.196511  0.505001  0.691510  1.0
  O  O10  1  0.255001  0.063491  0.808490  1.0
  O  O11  1  0.255001  0.446511  0.191510  1.0
  O  O12  1  0.813491  0.505001  0.308490  1.0
