# generated using pymatgen
data_Tb(PRu)2
_symmetry_space_group_name_H-M   'P 1'
_cell_length_a   4.06089650
_cell_length_b   4.06089646
_cell_length_c   5.59965898
_cell_angle_alpha   111.26008806
_cell_angle_beta   111.26008784
_cell_angle_gamma   89.99999734
_symmetry_Int_Tables_number   1
_chemical_formula_structural   Tb(PRu)2
_chemical_formula_sum   'Tb1 P2 Ru2'
_cell_volume   79.27765034
_cell_formula_units_Z   1
loop_
 _symmetry_equiv_pos_site_id
 _symmetry_equiv_pos_as_xyz
  1  'x, y, z'
loop_
 _atom_site_type_symbol
 _atom_site_label
 _atom_site_symmetry_multiplicity
 _atom_site_fract_x
 _atom_site_fract_y
 _atom_site_fract_z
 _atom_site_occupancy
  Tb  Tb1  1  0.000000  0.000000  0.000000  1.0
  P  P2  1  0.374698  0.374698  0.749395  1.0
  P  P3  1  0.625302  0.625302  0.250605  1.0
  Ru  Ru4  1  0.750000  0.250000  0.500000  1.0
  Ru  Ru5  1  0.250000  0.750000  0.500000  1.0
