# generated using pymatgen
data_Na2CoS2
_symmetry_space_group_name_H-M   'P 1'
_cell_length_a   5.57174572
_cell_length_b   6.37198370
_cell_length_c   7.11297765
_cell_angle_alpha   116.60615260
_cell_angle_beta   113.05487976
_cell_angle_gamma   89.99604454
_symmetry_Int_Tables_number   1
_chemical_formula_structural   Na2CoS2
_chemical_formula_sum   'Na4 Co2 S4'
_cell_volume   202.98490838
_cell_formula_units_Z   2
loop_
 _symmetry_equiv_pos_site_id
 _symmetry_equiv_pos_as_xyz
  1  'x, y, z'
loop_
 _atom_site_type_symbol
 _atom_site_label
 _atom_site_symmetry_multiplicity
 _atom_site_fract_x
 _atom_site_fract_y
 _atom_site_fract_z
 _atom_site_occupancy
  Na  Na1  1  0.856705  0.513501  0.713335  1.0
  Na  Na2  1  0.643369  0.800314  0.286831  1.0
  Na  Na3  1  0.143295  0.486499  0.286665  1.0
  Na  Na4  1  0.356631  0.199686  0.713169  1.0
  Co  Co5  1  0.250001  0.999985  0.999986  1.0
  Co  Co6  1  0.749999  0.000015  0.000014  1.0
  S  S7  1  0.109844  0.903306  0.219724  1.0
  S  S8  1  0.609881  0.316365  0.219824  1.0
  S  S9  1  0.890156  0.096694  0.780276  1.0
  S  S10  1  0.390119  0.683635  0.780176  1.0
