# generated using pymatgen
data_TiCu2Te3
_symmetry_space_group_name_H-M   'P 1'
_cell_length_a   4.00763004
_cell_length_b   7.16149162
_cell_length_c   10.17754181
_cell_angle_alpha   96.38506672
_cell_angle_beta   101.35492167
_cell_angle_gamma   89.99999748
_symmetry_Int_Tables_number   1
_chemical_formula_structural   TiCu2Te3
_chemical_formula_sum   'Ti2 Cu4 Te6'
_cell_volume   284.53583028
_cell_formula_units_Z   2
loop_
 _symmetry_equiv_pos_site_id
 _symmetry_equiv_pos_as_xyz
  1  'x, y, z'
loop_
 _atom_site_type_symbol
 _atom_site_label
 _atom_site_symmetry_multiplicity
 _atom_site_fract_x
 _atom_site_fract_y
 _atom_site_fract_z
 _atom_site_occupancy
  Ti  Ti1  1  0.645743  0.561427  0.291486  1.0
  Ti  Ti2  1  0.354257  0.438573  0.708514  1.0
  Cu  Cu3  1  0.713352  0.927478  0.426705  1.0
  Cu  Cu4  1  0.286648  0.072522  0.573295  1.0
  Cu  Cu5  1  0.045133  0.653355  0.090267  1.0
  Cu  Cu6  1  0.954867  0.346645  0.909733  1.0
  Te  Te7  1  0.752355  0.291941  0.504711  1.0
  Te  Te8  1  0.247645  0.708059  0.495289  1.0
  Te  Te9  1  0.582093  0.868766  0.164186  1.0
  Te  Te10  1  0.417907  0.131234  0.835814  1.0
  Te  Te11  1  0.912352  0.671550  0.824703  1.0
  Te  Te12  1  0.087648  0.328450  0.175297  1.0
