# generated using pymatgen
data_CsCdBr3
_symmetry_space_group_name_H-M   'P 1'
_cell_length_a   7.87720981
_cell_length_b   7.87720983
_cell_length_c   6.91914397
_cell_angle_alpha   90.00000000
_cell_angle_beta   90.00000000
_cell_angle_gamma   119.99999988
_symmetry_Int_Tables_number   1
_chemical_formula_structural   CsCdBr3
_chemical_formula_sum   'Cs2 Cd2 Br6'
_cell_volume   371.81578798
_cell_formula_units_Z   2
loop_
 _symmetry_equiv_pos_site_id
 _symmetry_equiv_pos_as_xyz
  1  'x, y, z'
loop_
 _atom_site_type_symbol
 _atom_site_label
 _atom_site_symmetry_multiplicity
 _atom_site_fract_x
 _atom_site_fract_y
 _atom_site_fract_z
 _atom_site_occupancy
  Cs  Cs1  1  0.333333  0.666667  0.750000  1.0
  Cs  Cs2  1  0.666667  0.333333  0.250000  1.0
  Cd  Cd3  1  0.000000  0.000000  0.000000  1.0
  Cd  Cd4  1  0.000000  0.000000  0.500000  1.0
  Br  Br5  1  0.163551  0.836449  0.250000  1.0
  Br  Br6  1  0.327103  0.163551  0.750000  1.0
  Br  Br7  1  0.836449  0.672897  0.750000  1.0
  Br  Br8  1  0.163551  0.327103  0.250000  1.0
  Br  Br9  1  0.672897  0.836449  0.250000  1.0
  Br  Br10  1  0.836449  0.163551  0.750000  1.0
