# generated using pymatgen
data_Ba3In2Br2O5
_symmetry_space_group_name_H-M   'P 1'
_cell_length_a   4.32673562
_cell_length_b   4.32673541
_cell_length_c   13.60382176
_cell_angle_alpha   99.15039208
_cell_angle_beta   99.15039162
_cell_angle_gamma   90.00000087
_symmetry_Int_Tables_number   1
_chemical_formula_structural   Ba3In2Br2O5
_chemical_formula_sum   'Ba3 In2 Br2 O5'
_cell_volume   248.14817659
_cell_formula_units_Z   1
loop_
 _symmetry_equiv_pos_site_id
 _symmetry_equiv_pos_as_xyz
  1  'x, y, z'
loop_
 _atom_site_type_symbol
 _atom_site_label
 _atom_site_symmetry_multiplicity
 _atom_site_fract_x
 _atom_site_fract_y
 _atom_site_fract_z
 _atom_site_occupancy
  Ba  Ba1  1  0.654295  0.654295  0.308590  1.0
  Ba  Ba2  1  0.345705  0.345705  0.691410  1.0
  Ba  Ba3  1  0.500000  0.500000  0.000000  1.0
  In  In4  1  0.920916  0.920916  0.841831  1.0
  In  In5  1  0.079084  0.079084  0.158169  1.0
  Br  Br6  1  0.795552  0.795552  0.591104  1.0
  Br  Br7  1  0.204448  0.204448  0.408896  1.0
  O  O8  1  0.910043  0.410043  0.820087  1.0
  O  O9  1  0.589957  0.089957  0.179913  1.0
  O  O10  1  0.410043  0.910043  0.820087  1.0
  O  O11  1  0.089957  0.589957  0.179913  1.0
  O  O12  1  0.000000  0.000000  0.000000  1.0
