# generated using pymatgen
data_Ge7Ir3
_symmetry_space_group_name_H-M   'P 1'
_cell_length_a   7.61908264
_cell_length_b   7.61908261
_cell_length_c   7.61908250
_cell_angle_alpha   109.47121767
_cell_angle_beta   109.47121757
_cell_angle_gamma   109.47122380
_symmetry_Int_Tables_number   1
_chemical_formula_structural   Ge7Ir3
_chemical_formula_sum   'Ge14 Ir6'
_cell_volume   340.47573600
_cell_formula_units_Z   2
loop_
 _symmetry_equiv_pos_site_id
 _symmetry_equiv_pos_as_xyz
  1  'x, y, z'
loop_
 _atom_site_type_symbol
 _atom_site_label
 _atom_site_symmetry_multiplicity
 _atom_site_fract_x
 _atom_site_fract_y
 _atom_site_fract_z
 _atom_site_occupancy
  Ge  Ge1  1  0.500000  0.750000  0.250000  1.0
  Ge  Ge2  1  0.750000  0.500000  0.250000  1.0
  Ge  Ge3  1  0.250000  0.500000  0.750000  1.0
  Ge  Ge4  1  0.750000  0.250000  0.500000  1.0
  Ge  Ge5  1  0.250000  0.750000  0.500000  1.0
  Ge  Ge6  1  0.500000  0.250000  0.750000  1.0
  Ge  Ge7  1  0.334635  0.334635  0.334635  1.0
  Ge  Ge8  1  0.334635  0.000000  0.000000  1.0
  Ge  Ge9  1  0.000000  0.334635  0.000000  1.0
  Ge  Ge10  1  0.000000  0.000000  0.334635  1.0
  Ge  Ge11  1  0.000000  0.665365  0.000000  1.0
  Ge  Ge12  1  0.000000  0.000000  0.665365  1.0
  Ge  Ge13  1  0.665365  0.000000  0.000000  1.0
  Ge  Ge14  1  0.665365  0.665365  0.665365  1.0
  Ir  Ir15  1  0.000000  0.339748  0.339748  1.0
  Ir  Ir16  1  0.339748  0.000000  0.339748  1.0
  Ir  Ir17  1  0.660252  0.000000  0.660252  1.0
  Ir  Ir18  1  0.660252  0.660252  0.000000  1.0
  Ir  Ir19  1  0.339748  0.339748  0.000000  1.0
  Ir  Ir20  1  0.000000  0.660252  0.660252  1.0
