# generated using pymatgen
data_KRb2CoF6
_symmetry_space_group_name_H-M   'P 1'
_cell_length_a   6.24327719
_cell_length_b   6.24327709
_cell_length_c   6.24327679
_cell_angle_alpha   60.00000164
_cell_angle_beta   60.00000218
_cell_angle_gamma   60.00000095
_symmetry_Int_Tables_number   1
_chemical_formula_structural   KRb2CoF6
_chemical_formula_sum   'K1 Rb2 Co1 F6'
_cell_volume   172.07700349
_cell_formula_units_Z   1
loop_
 _symmetry_equiv_pos_site_id
 _symmetry_equiv_pos_as_xyz
  1  'x, y, z'
loop_
 _atom_site_type_symbol
 _atom_site_label
 _atom_site_symmetry_multiplicity
 _atom_site_fract_x
 _atom_site_fract_y
 _atom_site_fract_z
 _atom_site_occupancy
  K  K1  1  0.500000  0.500000  0.500000  1.0
  Rb  Rb2  1  0.750000  0.750000  0.750000  1.0
  Rb  Rb3  1  0.250000  0.250000  0.250000  1.0
  Co  Co4  1  0.000000  0.000000  0.000000  1.0
  F  F5  1  0.212542  0.212542  0.787458  1.0
  F  F6  1  0.787458  0.212542  0.787458  1.0
  F  F7  1  0.212542  0.787458  0.212542  1.0
  F  F8  1  0.787458  0.787458  0.212542  1.0
  F  F9  1  0.212542  0.787458  0.787458  1.0
  F  F10  1  0.787458  0.212542  0.212542  1.0
