# generated using pymatgen
data_Cs2SO4
_symmetry_space_group_name_H-M   'P 1'
_cell_length_a   6.35420047
_cell_length_b   8.42495543
_cell_length_c   11.13418580
_cell_angle_alpha   90.00000000
_cell_angle_beta   90.00000000
_cell_angle_gamma   90.00000000
_symmetry_Int_Tables_number   1
_chemical_formula_structural   Cs2SO4
_chemical_formula_sum   'Cs8 S4 O16'
_cell_volume   596.05589654
_cell_formula_units_Z   4
loop_
 _symmetry_equiv_pos_site_id
 _symmetry_equiv_pos_as_xyz
  1  'x, y, z'
loop_
 _atom_site_type_symbol
 _atom_site_label
 _atom_site_symmetry_multiplicity
 _atom_site_fract_x
 _atom_site_fract_y
 _atom_site_fract_z
 _atom_site_occupancy
  Cs  Cs1  1  0.750000  0.322624  0.588773  1.0
  Cs  Cs2  1  0.250000  0.677376  0.411227  1.0
  Cs  Cs3  1  0.750000  0.822624  0.911227  1.0
  Cs  Cs4  1  0.250000  0.177376  0.088773  1.0
  Cs  Cs5  1  0.250000  0.991688  0.697046  1.0
  Cs  Cs6  1  0.750000  0.008312  0.302954  1.0
  Cs  Cs7  1  0.250000  0.491688  0.802954  1.0
  Cs  Cs8  1  0.750000  0.508312  0.197046  1.0
  S  S9  1  0.750000  0.754431  0.583498  1.0
  S  S10  1  0.250000  0.245569  0.416502  1.0
  S  S11  1  0.750000  0.254431  0.916502  1.0
  S  S12  1  0.250000  0.745569  0.083498  1.0
  O  O13  1  0.750000  0.931968  0.584923  1.0
  O  O14  1  0.250000  0.068032  0.415077  1.0
  O  O15  1  0.750000  0.431968  0.915077  1.0
  O  O16  1  0.250000  0.568032  0.084923  1.0
  O  O17  1  0.750000  0.695002  0.456370  1.0
  O  O18  1  0.250000  0.304997  0.543630  1.0
  O  O19  1  0.750000  0.195002  0.043630  1.0
  O  O20  1  0.250000  0.804998  0.956370  1.0
  O  O21  1  0.942857  0.694451  0.646573  1.0
  O  O22  1  0.442857  0.305549  0.353427  1.0
  O  O23  1  0.557143  0.194451  0.853427  1.0
  O  O24  1  0.057143  0.805549  0.146573  1.0
  O  O25  1  0.057143  0.305549  0.353427  1.0
  O  O26  1  0.557143  0.694451  0.646573  1.0
  O  O27  1  0.442857  0.805549  0.146573  1.0
  O  O28  1  0.942857  0.194451  0.853427  1.0
