# generated using pymatgen
data_MnFeAs
_symmetry_space_group_name_H-M   'P 1'
_cell_length_a   3.71527448
_cell_length_b   3.71527448
_cell_length_c   5.92007359
_cell_angle_alpha   90.00000000
_cell_angle_beta   90.00000000
_cell_angle_gamma   90.00000000
_symmetry_Int_Tables_number   1
_chemical_formula_structural   MnFeAs
_chemical_formula_sum   'Mn2 Fe2 As2'
_cell_volume   81.71634140
_cell_formula_units_Z   2
loop_
 _symmetry_equiv_pos_site_id
 _symmetry_equiv_pos_as_xyz
  1  'x, y, z'
loop_
 _atom_site_type_symbol
 _atom_site_label
 _atom_site_symmetry_multiplicity
 _atom_site_fract_x
 _atom_site_fract_y
 _atom_site_fract_z
 _atom_site_occupancy
  Mn  Mn1  1  0.250000  0.250000  0.322069  1.0
  Mn  Mn2  1  0.750000  0.750000  0.677931  1.0
  Fe  Fe3  1  0.250000  0.750000  0.000000  1.0
  Fe  Fe4  1  0.750000  0.250000  0.000000  1.0
  As  As5  1  0.250000  0.250000  0.748676  1.0
  As  As6  1  0.750000  0.750000  0.251324  1.0
