# generated using pymatgen
data_ZrOs2
_symmetry_space_group_name_H-M   'P 1'
_cell_length_a   5.24353096
_cell_length_b   5.24353096
_cell_length_c   8.61142113
_cell_angle_alpha   90.00000000
_cell_angle_beta   90.00000000
_cell_angle_gamma   120.01383547
_symmetry_Int_Tables_number   1
_chemical_formula_structural   ZrOs2
_chemical_formula_sum   'Zr4 Os8'
_cell_volume   205.01827214
_cell_formula_units_Z   4
loop_
 _symmetry_equiv_pos_site_id
 _symmetry_equiv_pos_as_xyz
  1  'x, y, z'
loop_
 _atom_site_type_symbol
 _atom_site_label
 _atom_site_symmetry_multiplicity
 _atom_site_fract_x
 _atom_site_fract_y
 _atom_site_fract_z
 _atom_site_occupancy
  Zr  Zr1  1  0.666653  0.333347  0.566720  1.0
  Zr  Zr2  1  0.333347  0.666653  0.433280  1.0
  Zr  Zr3  1  0.333347  0.666653  0.066720  1.0
  Zr  Zr4  1  0.666653  0.333347  0.933280  1.0
  Os  Os5  1  0.000000  0.000000  0.500000  1.0
  Os  Os6  1  0.000000  0.000000  0.000000  1.0
  Os  Os7  1  0.172615  0.345199  0.750000  1.0
  Os  Os8  1  0.172615  0.827385  0.750000  1.0
  Os  Os9  1  0.654801  0.827385  0.750000  1.0
  Os  Os10  1  0.827385  0.654801  0.250000  1.0
  Os  Os11  1  0.827385  0.172615  0.250000  1.0
  Os  Os12  1  0.345199  0.172615  0.250000  1.0
