# generated using pymatgen
data_SiC
_symmetry_space_group_name_H-M   'P 1'
_cell_length_a   22.81363712
_cell_length_b   22.81363705
_cell_length_c   22.81363710
_cell_angle_alpha   7.78713470
_cell_angle_beta   7.78713588
_cell_angle_gamma   7.78713502
_symmetry_Int_Tables_number   1
_chemical_formula_structural   SiC
_chemical_formula_sum   'Si9 C9'
_cell_volume   189.06740426
_cell_formula_units_Z   9
loop_
 _symmetry_equiv_pos_site_id
 _symmetry_equiv_pos_as_xyz
  1  'x, y, z'
loop_
 _atom_site_type_symbol
 _atom_site_label
 _atom_site_symmetry_multiplicity
 _atom_site_fract_x
 _atom_site_fract_y
 _atom_site_fract_z
 _atom_site_occupancy
  Si  Si1  1  0.888936  0.888936  0.888936  1.0
  Si  Si2  1  0.518517  0.518517  0.518517  1.0
  Si  Si3  1  0.148104  0.148104  0.148104  1.0
  Si  Si4  1  0.296201  0.296201  0.296201  1.0
  Si  Si5  1  0.592602  0.592602  0.592602  1.0
  Si  Si6  1  0.999906  0.999906  0.999906  1.0
  Si  Si7  1  0.444377  0.444377  0.444377  1.0
  Si  Si8  1  0.370293  0.370293  0.370293  1.0
  Si  Si9  1  0.740689  0.740689  0.740689  1.0
  C  C10  1  0.398133  0.398133  0.398133  1.0
  C  C11  1  0.768599  0.768599  0.768599  1.0
  C  C12  1  0.324010  0.324010  0.324010  1.0
  C  C13  1  0.027829  0.027829  0.027829  1.0
  C  C14  1  0.472195  0.472195  0.472195  1.0
  C  C15  1  0.916823  0.916823  0.916823  1.0
  C  C16  1  0.176036  0.176036  0.176036  1.0
  C  C17  1  0.546356  0.546356  0.546356  1.0
  C  C18  1  0.620392  0.620392  0.620392  1.0
