# generated using pymatgen
data_Ti2FeSe4
_symmetry_space_group_name_H-M   'P 1'
_cell_length_a   3.55875481
_cell_length_b   6.25786090
_cell_length_c   7.01573719
_cell_angle_alpha   116.60330734
_cell_angle_beta   104.69221854
_cell_angle_gamma   90.00000006
_symmetry_Int_Tables_number   1
_chemical_formula_structural   Ti2FeSe4
_chemical_formula_sum   'Ti2 Fe1 Se4'
_cell_volume   133.96213370
_cell_formula_units_Z   1
loop_
 _symmetry_equiv_pos_site_id
 _symmetry_equiv_pos_as_xyz
  1  'x, y, z'
loop_
 _atom_site_type_symbol
 _atom_site_label
 _atom_site_symmetry_multiplicity
 _atom_site_fract_x
 _atom_site_fract_y
 _atom_site_fract_z
 _atom_site_occupancy
  Ti  Ti1  1  0.250552  0.269798  0.501104  1.0
  Ti  Ti2  1  0.749448  0.730202  0.498896  1.0
  Fe  Fe3  1  0.000000  0.000000  0.000000  1.0
  Se  Se4  1  0.375313  0.045750  0.750627  1.0
  Se  Se5  1  0.116354  0.449850  0.232708  1.0
  Se  Se6  1  0.624687  0.954250  0.249373  1.0
  Se  Se7  1  0.883646  0.550150  0.767292  1.0
