# generated using pymatgen
data_Rb7Au5O2
_symmetry_space_group_name_H-M   'P 1'
_cell_length_a   5.80988627
_cell_length_b   9.47938094
_cell_length_c   10.15256737
_cell_angle_alpha   117.82979266
_cell_angle_beta   106.62634266
_cell_angle_gamma   89.99999745
_symmetry_Int_Tables_number   1
_chemical_formula_structural   Rb7Au5O2
_chemical_formula_sum   'Rb7 Au5 O2'
_cell_volume   467.87490105
_cell_formula_units_Z   1
loop_
 _symmetry_equiv_pos_site_id
 _symmetry_equiv_pos_as_xyz
  1  'x, y, z'
loop_
 _atom_site_type_symbol
 _atom_site_label
 _atom_site_symmetry_multiplicity
 _atom_site_fract_x
 _atom_site_fract_y
 _atom_site_fract_z
 _atom_site_occupancy
  Rb  Rb1  1  0.833901  0.611921  0.667803  1.0
  Rb  Rb2  1  0.500000  0.788857  0.000000  1.0
  Rb  Rb3  1  0.833901  0.055881  0.667803  1.0
  Rb  Rb4  1  0.166099  0.388079  0.332197  1.0
  Rb  Rb5  1  0.166099  0.944119  0.332197  1.0
  Rb  Rb6  1  0.500000  0.211143  0.000000  1.0
  Rb  Rb7  1  0.000000  0.500000  0.000000  1.0
  Au  Au8  1  0.651762  0.651762  0.303525  1.0
  Au  Au9  1  0.307090  0.807091  0.614181  1.0
  Au  Au10  1  0.000000  0.000000  0.000000  1.0
  Au  Au11  1  0.348238  0.348238  0.696475  1.0
  Au  Au12  1  0.692909  0.192910  0.385819  1.0
  O  O13  1  0.000000  0.784632  0.000000  1.0
  O  O14  1  0.000000  0.215368  0.000000  1.0
