# generated using pymatgen
data_LiTi2O4
_symmetry_space_group_name_H-M   'P 1'
_cell_length_a   2.93089463
_cell_length_b   4.83256846
_cell_length_c   4.78894344
_cell_angle_alpha   90.94744483
_cell_angle_beta   90.00000000
_cell_angle_gamma   90.00000000
_symmetry_Int_Tables_number   1
_chemical_formula_structural   LiTi2O4
_chemical_formula_sum   'Li1 Ti2 O4'
_cell_volume   67.82011918
_cell_formula_units_Z   1
loop_
 _symmetry_equiv_pos_site_id
 _symmetry_equiv_pos_as_xyz
  1  'x, y, z'
loop_
 _atom_site_type_symbol
 _atom_site_label
 _atom_site_symmetry_multiplicity
 _atom_site_fract_x
 _atom_site_fract_y
 _atom_site_fract_z
 _atom_site_occupancy
  Li  Li1  1  0.500000  0.000000  0.500000  1.0
  Ti  Ti2  1  0.000000  0.000000  0.000000  1.0
  Ti  Ti3  1  0.500000  0.500000  0.500000  1.0
  O  O4  1  0.000000  0.265417  0.668017  1.0
  O  O5  1  0.500000  0.215991  0.179382  1.0
  O  O6  1  0.500000  0.784009  0.820618  1.0
  O  O7  1  0.000000  0.734583  0.331983  1.0
