# generated using pymatgen
data_SrAc3
_symmetry_space_group_name_H-M   'P 1'
_cell_length_a   6.98273277
_cell_length_b   6.98273277
_cell_length_c   6.98273277
_cell_angle_alpha   131.49330110
_cell_angle_beta   131.49330110
_cell_angle_gamma   71.03048969
_symmetry_Int_Tables_number   1
_chemical_formula_structural   SrAc3
_chemical_formula_sum   'Sr1 Ac3'
_cell_volume   187.04315985
_cell_formula_units_Z   1
loop_
 _symmetry_equiv_pos_site_id
 _symmetry_equiv_pos_as_xyz
  1  'x, y, z'
loop_
 _atom_site_type_symbol
 _atom_site_label
 _atom_site_symmetry_multiplicity
 _atom_site_fract_x
 _atom_site_fract_y
 _atom_site_fract_z
 _atom_site_occupancy
  Sr  Sr1  1  0.000000  0.000000  0.000000  1.0
  Ac  Ac2  1  0.499999  0.499999  0.000000  1.0
  Ac  Ac3  1  0.749999  0.250000  0.499999  1.0
  Ac  Ac4  1  0.250000  0.749999  0.499999  1.0
