# generated using pymatgen
data_CuMoF6
_symmetry_space_group_name_H-M   'P 1'
_cell_length_a   5.21111068
_cell_length_b   5.23739290
_cell_length_c   5.56018415
_cell_angle_alpha   62.09040956
_cell_angle_beta   89.79367513
_cell_angle_gamma   60.49498969
_symmetry_Int_Tables_number   1
_chemical_formula_structural   CuMoF6
_chemical_formula_sum   'Cu1 Mo1 F6'
_cell_volume   111.51398767
_cell_formula_units_Z   1
loop_
 _symmetry_equiv_pos_site_id
 _symmetry_equiv_pos_as_xyz
  1  'x, y, z'
loop_
 _atom_site_type_symbol
 _atom_site_label
 _atom_site_symmetry_multiplicity
 _atom_site_fract_x
 _atom_site_fract_y
 _atom_site_fract_z
 _atom_site_occupancy
  Cu  Cu1  1  0.000000  0.000000  0.000000  1.0
  Mo  Mo2  1  0.500000  0.000000  0.500000  1.0
  F  F3  1  0.746601  0.867682  0.257799  1.0
  F  F4  1  0.253399  0.132318  0.742201  1.0
  F  F5  1  0.607303  0.523558  0.735518  1.0
  F  F6  1  0.392697  0.476442  0.264482  1.0
  F  F7  1  0.129406  0.124078  0.256527  1.0
  F  F8  1  0.870594  0.875922  0.743473  1.0
