# generated using pymatgen
data_AgBiSCl2
_symmetry_space_group_name_H-M   'P 1'
_cell_length_a   4.07054279
_cell_length_b   7.37172961
_cell_length_c   8.70450217
_cell_angle_alpha   90.00000000
_cell_angle_beta   90.00000000
_cell_angle_gamma   106.02706706
_symmetry_Int_Tables_number   1
_chemical_formula_structural   AgBiSCl2
_chemical_formula_sum   'Ag2 Bi2 S2 Cl4'
_cell_volume   251.04317222
_cell_formula_units_Z   2
loop_
 _symmetry_equiv_pos_site_id
 _symmetry_equiv_pos_as_xyz
  1  'x, y, z'
loop_
 _atom_site_type_symbol
 _atom_site_label
 _atom_site_symmetry_multiplicity
 _atom_site_fract_x
 _atom_site_fract_y
 _atom_site_fract_z
 _atom_site_occupancy
  Ag  Ag1  1  0.000000  0.000000  0.500000  1.0
  Ag  Ag2  1  0.000000  0.000000  0.000000  1.0
  Bi  Bi3  1  0.291053  0.582106  0.750000  1.0
  Bi  Bi4  1  0.708947  0.417894  0.250000  1.0
  S  S5  1  0.917289  0.834577  0.750000  1.0
  S  S6  1  0.082711  0.165423  0.250000  1.0
  Cl  Cl7  1  0.659327  0.318653  0.562402  1.0
  Cl  Cl8  1  0.340673  0.681347  0.437598  1.0
  Cl  Cl9  1  0.340673  0.681347  0.062402  1.0
  Cl  Cl10  1  0.659327  0.318653  0.937598  1.0
