# generated using pymatgen
data_LiCuO
_symmetry_space_group_name_H-M   'P 1'
_cell_length_a   3.92887996
_cell_length_b   6.32392832
_cell_length_c   6.32392832
_cell_angle_alpha   84.46264247
_cell_angle_beta   71.90243530
_cell_angle_gamma   71.90243530
_symmetry_Int_Tables_number   1
_chemical_formula_structural   LiCuO
_chemical_formula_sum   'Li4 Cu4 O4'
_cell_volume   141.96239626
_cell_formula_units_Z   4
loop_
 _symmetry_equiv_pos_site_id
 _symmetry_equiv_pos_as_xyz
  1  'x, y, z'
loop_
 _atom_site_type_symbol
 _atom_site_label
 _atom_site_symmetry_multiplicity
 _atom_site_fract_x
 _atom_site_fract_y
 _atom_site_fract_z
 _atom_site_occupancy
  Li  Li1  1  0.250579  0.150321  0.849679  1.0
  Li  Li2  1  0.250579  0.849679  0.150321  1.0
  Li  Li3  1  0.899743  0.849679  0.849679  1.0
  Li  Li4  1  0.599100  0.150321  0.150321  1.0
  Cu  Cu5  1  0.591862  0.500000  0.816276  1.0
  Cu  Cu6  1  0.908138  0.500000  0.183724  1.0
  Cu  Cu7  1  0.591862  0.816276  0.500000  1.0
  Cu  Cu8  1  0.908138  0.183724  0.500000  1.0
  O  O9  1  0.749239  0.809228  0.190772  1.0
  O  O10  1  0.749239  0.190772  0.809228  1.0
  O  O11  1  0.059989  0.190772  0.190772  1.0
  O  O12  1  0.441533  0.809228  0.809228  1.0
