# generated using pymatgen
data_SiO2
_symmetry_space_group_name_H-M   'P 1'
_cell_length_a   8.28882831
_cell_length_b   8.28882802
_cell_length_c   7.54689361
_cell_angle_alpha   90.00000000
_cell_angle_beta   90.00000000
_cell_angle_gamma   119.99999719
_symmetry_Int_Tables_number   1
_chemical_formula_structural   SiO2
_chemical_formula_sum   'Si12 O24'
_cell_volume   449.04011921
_cell_formula_units_Z   12
loop_
 _symmetry_equiv_pos_site_id
 _symmetry_equiv_pos_as_xyz
  1  'x, y, z'
loop_
 _atom_site_type_symbol
 _atom_site_label
 _atom_site_symmetry_multiplicity
 _atom_site_fract_x
 _atom_site_fract_y
 _atom_site_fract_z
 _atom_site_occupancy
  Si  Si1  1  0.710080  0.649580  0.572586  1.0
  Si  Si2  1  0.939500  0.289920  0.572586  1.0
  Si  Si3  1  0.939500  0.649580  0.927414  1.0
  Si  Si4  1  0.350420  0.289920  0.927414  1.0
  Si  Si5  1  0.649580  0.939500  0.427414  1.0
  Si  Si6  1  0.060500  0.350420  0.072586  1.0
  Si  Si7  1  0.060500  0.710080  0.427414  1.0
  Si  Si8  1  0.649580  0.710080  0.072586  1.0
  Si  Si9  1  0.289920  0.939500  0.072586  1.0
  Si  Si10  1  0.289920  0.350420  0.427414  1.0
  Si  Si11  1  0.710080  0.060500  0.927414  1.0
  Si  Si12  1  0.350420  0.060500  0.572586  1.0
  O  O13  1  0.308082  0.164555  0.411746  1.0
  O  O14  1  0.601938  0.800969  0.250000  1.0
  O  O15  1  0.000000  0.500000  0.000000  1.0
  O  O16  1  0.691918  0.856472  0.911746  1.0
  O  O17  1  0.800969  0.601938  0.750000  1.0
  O  O18  1  0.856472  0.691918  0.411746  1.0
  O  O19  1  0.398062  0.199031  0.750000  1.0
  O  O20  1  0.143528  0.308082  0.588254  1.0
  O  O21  1  0.691918  0.835445  0.588254  1.0
  O  O22  1  0.308082  0.143528  0.088254  1.0
  O  O23  1  0.199031  0.398062  0.250000  1.0
  O  O24  1  0.835445  0.143528  0.411746  1.0
  O  O25  1  0.500000  0.500000  0.500000  1.0
  O  O26  1  0.199031  0.800969  0.250000  1.0
  O  O27  1  0.164555  0.856472  0.588254  1.0
  O  O28  1  0.835445  0.691918  0.088254  1.0
  O  O29  1  0.500000  0.000000  0.000000  1.0
  O  O30  1  0.164555  0.308082  0.911746  1.0
  O  O31  1  0.143528  0.835445  0.911746  1.0
  O  O32  1  0.856472  0.164555  0.088254  1.0
  O  O33  1  0.500000  0.000000  0.500000  1.0
  O  O34  1  0.500000  0.500000  0.000000  1.0
  O  O35  1  0.800969  0.199031  0.750000  1.0
  O  O36  1  0.000000  0.500000  0.500000  1.0
