# generated using pymatgen
data_CsI4
_symmetry_space_group_name_H-M   'P 1'
_cell_length_a   9.08920282
_cell_length_b   10.71120639
_cell_length_c   11.72064649
_cell_angle_alpha   112.79947728
_cell_angle_beta   90.00000000
_cell_angle_gamma   90.00000000
_symmetry_Int_Tables_number   1
_chemical_formula_structural   CsI4
_chemical_formula_sum   'Cs4 I16'
_cell_volume   1051.92280589
_cell_formula_units_Z   4
loop_
 _symmetry_equiv_pos_site_id
 _symmetry_equiv_pos_as_xyz
  1  'x, y, z'
loop_
 _atom_site_type_symbol
 _atom_site_label
 _atom_site_symmetry_multiplicity
 _atom_site_fract_x
 _atom_site_fract_y
 _atom_site_fract_z
 _atom_site_occupancy
  Cs  Cs1  1  0.624067  0.272696  0.695423  1.0
  Cs  Cs2  1  0.124067  0.727304  0.804577  1.0
  Cs  Cs3  1  0.375933  0.727304  0.304577  1.0
  Cs  Cs4  1  0.875933  0.272696  0.195423  1.0
  I  I5  1  0.356192  0.453160  0.512322  1.0
  I  I6  1  0.856192  0.546840  0.987678  1.0
  I  I7  1  0.643808  0.546840  0.487678  1.0
  I  I8  1  0.143808  0.453160  0.012322  1.0
  I  I9  1  0.029799  0.330023  0.549440  1.0
  I  I10  1  0.529799  0.669977  0.950560  1.0
  I  I11  1  0.970201  0.669977  0.450560  1.0
  I  I12  1  0.470201  0.330023  0.049440  1.0
  I  I13  1  0.206334  0.124449  0.609137  1.0
  I  I14  1  0.706334  0.875551  0.890863  1.0
  I  I15  1  0.793666  0.875551  0.390863  1.0
  I  I16  1  0.293666  0.124449  0.109137  1.0
  I  I17  1  0.395197  0.940391  0.669182  1.0
  I  I18  1  0.895197  0.059609  0.830818  1.0
  I  I19  1  0.604803  0.059609  0.330818  1.0
  I  I20  1  0.104803  0.940391  0.169182  1.0
