# generated using pymatgen
data_Ti2MnO4
_symmetry_space_group_name_H-M   'P 1'
_cell_length_a   6.12073230
_cell_length_b   6.12073198
_cell_length_c   6.12073208
_cell_angle_alpha   59.99999944
_cell_angle_beta   60.00000121
_cell_angle_gamma   59.99999907
_symmetry_Int_Tables_number   1
_chemical_formula_structural   Ti2MnO4
_chemical_formula_sum   'Ti4 Mn2 O8'
_cell_volume   162.14184816
_cell_formula_units_Z   2
loop_
 _symmetry_equiv_pos_site_id
 _symmetry_equiv_pos_as_xyz
  1  'x, y, z'
loop_
 _atom_site_type_symbol
 _atom_site_label
 _atom_site_symmetry_multiplicity
 _atom_site_fract_x
 _atom_site_fract_y
 _atom_site_fract_z
 _atom_site_occupancy
  Ti  Ti1  1  0.500000  0.500000  0.000000  1.0
  Ti  Ti2  1  0.500000  0.000000  0.500000  1.0
  Ti  Ti3  1  0.500000  0.500000  0.500000  1.0
  Ti  Ti4  1  0.000000  0.500000  0.500000  1.0
  Mn  Mn5  1  0.125000  0.125000  0.125000  1.0
  Mn  Mn6  1  0.875000  0.875000  0.875000  1.0
  O  O7  1  0.738673  0.738673  0.283980  1.0
  O  O8  1  0.261327  0.261327  0.261327  1.0
  O  O9  1  0.261327  0.261327  0.716020  1.0
  O  O10  1  0.283980  0.738673  0.738673  1.0
  O  O11  1  0.738673  0.283980  0.738673  1.0
  O  O12  1  0.261327  0.716020  0.261327  1.0
  O  O13  1  0.738673  0.738673  0.738673  1.0
  O  O14  1  0.716020  0.261327  0.261327  1.0
