# generated using pymatgen
data_KCrF6
_symmetry_space_group_name_H-M   'P 1'
_cell_length_a   5.00587962
_cell_length_b   5.00587936
_cell_length_c   5.00587998
_cell_angle_alpha   97.96748368
_cell_angle_beta   97.96748330
_cell_angle_gamma   97.96747713
_symmetry_Int_Tables_number   1
_chemical_formula_structural   KCrF6
_chemical_formula_sum   'K1 Cr1 F6'
_cell_volume   121.42805574
_cell_formula_units_Z   1
loop_
 _symmetry_equiv_pos_site_id
 _symmetry_equiv_pos_as_xyz
  1  'x, y, z'
loop_
 _atom_site_type_symbol
 _atom_site_label
 _atom_site_symmetry_multiplicity
 _atom_site_fract_x
 _atom_site_fract_y
 _atom_site_fract_z
 _atom_site_occupancy
  K  K1  1  0.000000  0.000000  0.000000  1.0
  Cr  Cr2  1  0.500000  0.500000  0.500000  1.0
  F  F3  1  0.582042  0.268192  0.225408  1.0
  F  F4  1  0.268192  0.225408  0.582042  1.0
  F  F5  1  0.774592  0.417958  0.731808  1.0
  F  F6  1  0.731808  0.774592  0.417958  1.0
  F  F7  1  0.417958  0.731808  0.774592  1.0
  F  F8  1  0.225408  0.582042  0.268192  1.0
