# generated using pymatgen
data_SiC
_symmetry_space_group_name_H-M   'P 1'
_cell_length_a   3.09439971
_cell_length_b   3.09439965
_cell_length_c   48.09961694
_cell_angle_alpha   90.00000000
_cell_angle_beta   90.00000000
_cell_angle_gamma   120.00000055
_symmetry_Int_Tables_number   1
_chemical_formula_structural   SiC
_chemical_formula_sum   'Si19 C19'
_cell_volume   398.86420364
_cell_formula_units_Z   19
loop_
 _symmetry_equiv_pos_site_id
 _symmetry_equiv_pos_as_xyz
  1  'x, y, z'
loop_
 _atom_site_type_symbol
 _atom_site_label
 _atom_site_symmetry_multiplicity
 _atom_site_fract_x
 _atom_site_fract_y
 _atom_site_fract_z
 _atom_site_occupancy
  Si  Si1  1  0.666667  0.333333  0.736845  1.0
  Si  Si2  1  0.666667  0.333333  0.947351  1.0
  Si  Si3  1  0.666667  0.333333  0.157891  1.0
  Si  Si4  1  0.333333  0.666667  0.684187  1.0
  Si  Si5  1  0.000000  0.000000  0.789428  1.0
  Si  Si6  1  0.333333  0.666667  0.368387  1.0
  Si  Si7  1  0.000000  0.000000  0.421034  1.0
  Si  Si8  1  0.666667  0.333333  0.631545  1.0
  Si  Si9  1  0.000000  0.000000  0.210536  1.0
  Si  Si10  1  0.666667  0.333333  0.526265  1.0
  Si  Si11  1  0.333333  0.666667  0.473684  1.0
  Si  Si12  1  0.000000  0.000000  0.894709  1.0
  Si  Si13  1  0.000000  0.000000  0.999978  1.0
  Si  Si14  1  0.333333  0.666667  0.842090  1.0
  Si  Si15  1  0.333333  0.666667  0.263107  1.0
  Si  Si16  1  0.666667  0.333333  0.315770  1.0
  Si  Si17  1  0.000000  0.000000  0.105245  1.0
  Si  Si18  1  0.000000  0.000000  0.578929  1.0
  Si  Si19  1  0.333333  0.666667  0.052622  1.0
  C  C20  1  0.000000  0.000000  0.618509  1.0
  C  C21  1  0.000000  0.000000  0.828909  1.0
  C  C22  1  0.333333  0.666667  0.723780  1.0
  C  C23  1  0.666667  0.333333  0.776335  1.0
  C  C24  1  0.333333  0.666667  0.407845  1.0
  C  C25  1  0.666667  0.333333  0.355353  1.0
  C  C26  1  0.666667  0.333333  0.671000  1.0
  C  C27  1  0.000000  0.000000  0.144712  1.0
  C  C28  1  0.666667  0.333333  0.986941  1.0
  C  C29  1  0.000000  0.000000  0.460625  1.0
  C  C30  1  0.000000  0.000000  0.934168  1.0
  C  C31  1  0.666667  0.333333  0.197481  1.0
  C  C32  1  0.333333  0.666667  0.513167  1.0
  C  C33  1  0.666667  0.333333  0.565744  1.0
  C  C34  1  0.333333  0.666667  0.302587  1.0
  C  C35  1  0.000000  0.000000  0.250014  1.0
  C  C36  1  0.000000  0.000000  0.039434  1.0
  C  C37  1  0.333333  0.666667  0.881677  1.0
  C  C38  1  0.333333  0.666667  0.092214  1.0
