# generated using pymatgen
data_Cs2KScCl6
_symmetry_space_group_name_H-M   'P 1'
_cell_length_a   7.83791494
_cell_length_b   7.83791530
_cell_length_c   7.83791528
_cell_angle_alpha   59.99999885
_cell_angle_beta   59.99999830
_cell_angle_gamma   59.99999833
_symmetry_Int_Tables_number   1
_chemical_formula_structural   Cs2KScCl6
_chemical_formula_sum   'Cs2 K1 Sc1 Cl6'
_cell_volume   340.47612554
_cell_formula_units_Z   1
loop_
 _symmetry_equiv_pos_site_id
 _symmetry_equiv_pos_as_xyz
  1  'x, y, z'
loop_
 _atom_site_type_symbol
 _atom_site_label
 _atom_site_symmetry_multiplicity
 _atom_site_fract_x
 _atom_site_fract_y
 _atom_site_fract_z
 _atom_site_occupancy
  Cs  Cs1  1  0.250000  0.250000  0.250000  1.0
  Cs  Cs2  1  0.750000  0.750000  0.750000  1.0
  K  K3  1  0.500000  0.500000  0.500000  1.0
  Sc  Sc4  1  0.000000  0.000000  0.000000  1.0
  Cl  Cl5  1  0.225913  0.774087  0.225913  1.0
  Cl  Cl6  1  0.774087  0.774087  0.225913  1.0
  Cl  Cl7  1  0.774087  0.225913  0.774087  1.0
  Cl  Cl8  1  0.774087  0.225913  0.225913  1.0
  Cl  Cl9  1  0.225913  0.774087  0.774087  1.0
  Cl  Cl10  1  0.225913  0.225913  0.774087  1.0
