# generated using pymatgen
data_LiV3O5F
_symmetry_space_group_name_H-M   'P 1'
_cell_length_a   5.11955927
_cell_length_b   5.52299589
_cell_length_c   5.11223654
_cell_angle_alpha   116.79180577
_cell_angle_beta   60.53621141
_cell_angle_gamma   118.03764024
_symmetry_Int_Tables_number   1
_chemical_formula_structural   LiV3O5F
_chemical_formula_sum   'Li1 V3 O5 F1'
_cell_volume   106.45487176
_cell_formula_units_Z   1
loop_
 _symmetry_equiv_pos_site_id
 _symmetry_equiv_pos_as_xyz
  1  'x, y, z'
loop_
 _atom_site_type_symbol
 _atom_site_label
 _atom_site_symmetry_multiplicity
 _atom_site_fract_x
 _atom_site_fract_y
 _atom_site_fract_z
 _atom_site_occupancy
  Li  Li1  1  0.863119  0.599213  0.889560  1.0
  V  V2  1  0.171932  0.439710  0.123884  1.0
  V  V3  1  0.365905  0.056308  0.326610  1.0
  V  V4  1  0.639093  0.966436  0.655194  1.0
  O  O5  1  0.069578  0.210168  0.421420  1.0
  O  O6  1  0.515701  0.758900  0.283814  1.0
  O  O7  1  0.271913  0.762365  0.951546  1.0
  O  O8  1  0.751262  0.238446  0.060882  1.0
  O  O9  1  0.424093  0.238698  0.738399  1.0
  F  F10  1  0.927401  0.729756  0.548689  1.0
