# generated using pymatgen
data_Al23B50
_symmetry_space_group_name_H-M   'P 1'
_cell_length_a   15.00493097
_cell_length_b   13.74513560
_cell_length_c   6.11670734
_cell_angle_alpha   81.19809879
_cell_angle_beta   42.24885719
_cell_angle_gamma   108.78649897
_symmetry_Int_Tables_number   1
_chemical_formula_structural   Al23B50
_chemical_formula_sum   'Al23 B50'
_cell_volume   633.25758329
_cell_formula_units_Z   1
loop_
 _symmetry_equiv_pos_site_id
 _symmetry_equiv_pos_as_xyz
  1  'x, y, z'
loop_
 _atom_site_type_symbol
 _atom_site_label
 _atom_site_symmetry_multiplicity
 _atom_site_fract_x
 _atom_site_fract_y
 _atom_site_fract_z
 _atom_site_occupancy
  Al  Al1  1  0.039513  0.806011  0.997705  1.0
  Al  Al2  1  0.073499  0.592448  0.005585  1.0
  Al  Al3  1  0.238024  0.798448  0.001783  1.0
  Al  Al4  1  0.112012  0.397959  0.003237  1.0
  Al  Al5  1  0.270998  0.593799  0.020872  1.0
  Al  Al6  1  0.152885  0.192503  0.004418  1.0
  Al  Al7  1  0.440213  0.799527  0.000319  1.0
  Al  Al8  1  0.316276  0.397268  0.005814  1.0
  Al  Al9  1  0.194192  0.000329  0.998982  1.0
  Al  Al10  1  0.479787  0.600473  0.999681  1.0
  Al  Al11  1  0.352291  0.195177  0.019967  1.0
  Al  Al12  1  0.519645  0.397844  0.001655  1.0
  Al  Al13  1  0.649002  0.806201  0.979128  1.0
  Al  Al14  1  0.400355  0.002156  0.998345  1.0
  Al  Al15  1  0.567709  0.204823  0.980033  1.0
  Al  Al16  1  0.681976  0.601552  0.998217  1.0
  Al  Al17  1  0.603724  0.002732  0.994186  1.0
  Al  Al18  1  0.725808  0.399671  0.001018  1.0
  Al  Al19  1  0.846501  0.807552  0.994415  1.0
  Al  Al20  1  0.767115  0.207497  0.995582  1.0
  Al  Al21  1  0.880487  0.593989  0.002295  1.0
  Al  Al22  1  0.807988  0.002041  0.996763  1.0
  Al  Al23  1  0.960000  0.200000  0.000000  1.0
  B  B24  1  0.102218  0.834313  0.493888  1.0
  B  B25  1  0.140026  0.966477  0.500452  1.0
  B  B26  1  0.020214  0.566599  0.499434  1.0
  B  B27  1  0.181518  0.767475  0.497115  1.0
  B  B28  1  0.140157  0.633516  0.500278  1.0
  B  B29  1  0.060148  0.366283  0.500764  1.0
  B  B30  1  0.022767  0.234811  0.491390  1.0
  B  B31  1  0.300665  0.833464  0.498973  1.0
  B  B32  1  0.342932  0.967655  0.493357  1.0
  B  B33  1  0.220345  0.566278  0.499555  1.0
  B  B34  1  0.180404  0.433126  0.499238  1.0
  B  B35  1  0.099950  0.166417  0.500732  1.0
  B  B36  1  0.059607  0.033109  0.503065  1.0
  B  B37  1  0.341935  0.634183  0.496443  1.0
  B  B38  1  0.380146  0.766093  0.499758  1.0
  B  B39  1  0.264060  0.368435  0.490795  1.0
  B  B40  1  0.219924  0.233196  0.500609  1.0
  B  B41  1  0.499505  0.833365  0.500488  1.0
  B  B42  1  0.538837  0.966029  0.502105  1.0
  B  B43  1  0.381163  0.433971  0.497895  1.0
  B  B44  1  0.420495  0.566635  0.499512  1.0
  B  B45  1  0.300300  0.166000  0.499195  1.0
  B  B46  1  0.260140  0.033133  0.500018  1.0
  B  B47  1  0.539854  0.633907  0.500242  1.0
  B  B48  1  0.578065  0.765817  0.503557  1.0
  B  B49  1  0.421689  0.234329  0.496477  1.0
  B  B50  1  0.459907  0.366178  0.500789  1.0
  B  B51  1  0.739596  0.966874  0.500762  1.0
  B  B52  1  0.577068  0.432345  0.506643  1.0
  B  B53  1  0.619335  0.566536  0.501027  1.0
  B  B54  1  0.699655  0.833722  0.500445  1.0
  B  B55  1  0.460093  0.033822  0.499211  1.0
  B  B56  1  0.498311  0.165671  0.503523  1.0
  B  B57  1  0.619700  0.234000  0.500805  1.0
  B  B58  1  0.659860  0.366867  0.499982  1.0
  B  B59  1  0.779843  0.766484  0.499722  1.0
  B  B60  1  0.738482  0.632525  0.502885  1.0
  B  B61  1  0.700076  0.166804  0.499391  1.0
  B  B62  1  0.899786  0.833401  0.500566  1.0
  B  B63  1  0.940684  0.967207  0.496322  1.0
  B  B64  1  0.655940  0.031565  0.509205  1.0
  B  B65  1  0.817782  0.565687  0.506112  1.0
  B  B66  1  0.779974  0.433523  0.499548  1.0
  B  B67  1  0.940675  0.634120  0.496584  1.0
  B  B68  1  0.979325  0.765880  0.503416  1.0
  B  B69  1  0.820050  0.233583  0.499268  1.0
  B  B70  1  0.860393  0.366891  0.496935  1.0
  B  B71  1  0.897233  0.165189  0.508610  1.0
  B  B72  1  0.979316  0.432793  0.503678  1.0
  B  B73  1  0.859852  0.033717  0.499236  1.0
