# generated using pymatgen
data_ZrCuF6
_symmetry_space_group_name_H-M   'P 1'
_cell_length_a   5.75946932
_cell_length_b   5.58582588
_cell_length_c   5.59100161
_cell_angle_alpha   90.52383426
_cell_angle_beta   118.68867375
_cell_angle_gamma   119.71276110
_symmetry_Int_Tables_number   1
_chemical_formula_structural   ZrCuF6
_chemical_formula_sum   'Zr1 Cu1 F6'
_cell_volume   129.63728741
_cell_formula_units_Z   1
loop_
 _symmetry_equiv_pos_site_id
 _symmetry_equiv_pos_as_xyz
  1  'x, y, z'
loop_
 _atom_site_type_symbol
 _atom_site_label
 _atom_site_symmetry_multiplicity
 _atom_site_fract_x
 _atom_site_fract_y
 _atom_site_fract_z
 _atom_site_occupancy
  Zr  Zr1  1  0.000000  0.500000  0.500000  1.0
  Cu  Cu2  1  0.000000  0.000000  0.000000  1.0
  F  F3  1  0.987995  0.200549  0.712179  1.0
  F  F4  1  0.519714  0.225086  0.215498  1.0
  F  F5  1  0.012005  0.799451  0.287821  1.0
  F  F6  1  0.480286  0.774914  0.784502  1.0
  F  F7  1  0.078163  0.320229  0.248211  1.0
  F  F8  1  0.921837  0.679771  0.751789  1.0
