# generated using pymatgen
data_LiAsH6(OF2)3
_symmetry_space_group_name_H-M   'P 1'
_cell_length_a   8.54261519
_cell_length_b   8.54261495
_cell_length_c   5.59262410
_cell_angle_alpha   90.00000000
_cell_angle_beta   90.00000000
_cell_angle_gamma   120.00000087
_symmetry_Int_Tables_number   1
_chemical_formula_structural   LiAsH6(OF2)3
_chemical_formula_sum   'Li2 As2 H12 O6 F12'
_cell_volume   353.44995666
_cell_formula_units_Z   2
loop_
 _symmetry_equiv_pos_site_id
 _symmetry_equiv_pos_as_xyz
  1  'x, y, z'
loop_
 _atom_site_type_symbol
 _atom_site_label
 _atom_site_symmetry_multiplicity
 _atom_site_fract_x
 _atom_site_fract_y
 _atom_site_fract_z
 _atom_site_occupancy
  Li  Li1  1  0.000000  0.000000  0.803364  1.0
  Li  Li2  1  0.000000  0.000000  0.303364  1.0
  As  As3  1  0.333333  0.666667  0.429434  1.0
  As  As4  1  0.666667  0.333333  0.929434  1.0
  H  H5  1  0.940565  0.240892  0.558593  1.0
  H  H6  1  0.300327  0.240892  0.558593  1.0
  H  H7  1  0.300327  0.059435  0.558593  1.0
  H  H8  1  0.059435  0.759108  0.058593  1.0
  H  H9  1  0.759108  0.699673  0.558593  1.0
  H  H10  1  0.699673  0.759108  0.058593  1.0
  H  H11  1  0.759108  0.059435  0.558593  1.0
  H  H12  1  0.240892  0.940565  0.058593  1.0
  H  H13  1  0.240892  0.300327  0.058593  1.0
  H  H14  1  0.699673  0.940565  0.058593  1.0
  H  H15  1  0.059435  0.300327  0.058593  1.0
  H  H16  1  0.940565  0.699673  0.558593  1.0
  O  O17  1  0.779824  0.889912  0.052863  1.0
  O  O18  1  0.110088  0.220176  0.052863  1.0
  O  O19  1  0.220176  0.110088  0.552863  1.0
  O  O20  1  0.889912  0.779824  0.552863  1.0
  O  O21  1  0.889912  0.110088  0.552863  1.0
  O  O22  1  0.110088  0.889912  0.052863  1.0
  F  F23  1  0.431458  0.568542  0.245302  1.0
  F  F24  1  0.765089  0.530177  0.110650  1.0
  F  F25  1  0.568542  0.137084  0.745302  1.0
  F  F26  1  0.568542  0.431458  0.745302  1.0
  F  F27  1  0.234911  0.765089  0.610650  1.0
  F  F28  1  0.469823  0.234911  0.110650  1.0
  F  F29  1  0.765089  0.234911  0.110650  1.0
  F  F30  1  0.530177  0.765089  0.610650  1.0
  F  F31  1  0.431458  0.862916  0.245302  1.0
  F  F32  1  0.862916  0.431458  0.745302  1.0
  F  F33  1  0.137084  0.568542  0.245302  1.0
  F  F34  1  0.234911  0.469823  0.610650  1.0
