# generated using pymatgen
data_Ta2PdS6
_symmetry_space_group_name_H-M   'P 1'
_cell_length_a   3.29102070
_cell_length_b   6.99499360
_cell_length_c   9.33278908
_cell_angle_alpha   80.08967915
_cell_angle_beta   79.84481020
_cell_angle_gamma   76.39416177
_symmetry_Int_Tables_number   1
_chemical_formula_structural   Ta2PdS6
_chemical_formula_sum   'Ta2 Pd1 S6'
_cell_volume   203.62136417
_cell_formula_units_Z   1
loop_
 _symmetry_equiv_pos_site_id
 _symmetry_equiv_pos_as_xyz
  1  'x, y, z'
loop_
 _atom_site_type_symbol
 _atom_site_label
 _atom_site_symmetry_multiplicity
 _atom_site_fract_x
 _atom_site_fract_y
 _atom_site_fract_z
 _atom_site_occupancy
  Ta  Ta1  1  0.680625  0.933282  0.705469  1.0
  Ta  Ta2  1  0.319375  0.066718  0.294531  1.0
  Pd  Pd3  1  0.000000  0.000000  0.000000  1.0
  S  S4  1  0.328035  0.809021  0.534908  1.0
  S  S5  1  0.976212  0.811506  0.236070  1.0
  S  S6  1  0.023788  0.188494  0.763930  1.0
  S  S7  1  0.671965  0.190979  0.465092  1.0
  S  S8  1  0.203239  0.728732  0.864790  1.0
  S  S9  1  0.796761  0.271268  0.135210  1.0
