# generated using pymatgen
data_MnP4
_symmetry_space_group_name_H-M   'P 1'
_cell_length_a   5.09703733
_cell_length_b   5.84426080
_cell_length_c   21.78562011
_cell_angle_alpha   94.13987677
_cell_angle_beta   90.00000000
_cell_angle_gamma   115.85352845
_symmetry_Int_Tables_number   1
_chemical_formula_structural   MnP4
_chemical_formula_sum   'Mn8 P32'
_cell_volume   582.12375037
_cell_formula_units_Z   8
loop_
 _symmetry_equiv_pos_site_id
 _symmetry_equiv_pos_as_xyz
  1  'x, y, z'
loop_
 _atom_site_type_symbol
 _atom_site_label
 _atom_site_symmetry_multiplicity
 _atom_site_fract_x
 _atom_site_fract_y
 _atom_site_fract_z
 _atom_site_occupancy
  Mn  Mn1  1  0.514487  0.631615  0.181756  1.0
  Mn  Mn2  1  0.956808  0.148923  0.429621  1.0
  Mn  Mn3  1  0.807885  0.851077  0.070379  1.0
  Mn  Mn4  1  0.882872  0.368385  0.318244  1.0
  Mn  Mn5  1  0.192115  0.148923  0.929621  1.0
  Mn  Mn6  1  0.117128  0.631615  0.681756  1.0
  Mn  Mn7  1  0.043192  0.851077  0.570379  1.0
  Mn  Mn8  1  0.485513  0.368385  0.818244  1.0
  P  P9  1  0.955517  0.948264  0.170257  1.0
  P  P10  1  0.413225  0.448193  0.450789  1.0
  P  P11  1  0.637341  0.065456  0.800009  1.0
  P  P12  1  0.571885  0.934544  0.699991  1.0
  P  P13  1  0.965033  0.551807  0.049211  1.0
  P  P14  1  0.501360  0.842147  0.425618  1.0
  P  P15  1  0.638004  0.459990  0.916470  1.0
  P  P16  1  0.905558  0.151616  0.536540  1.0
  P  P17  1  0.706625  0.655714  0.284139  1.0
  P  P18  1  0.340787  0.842147  0.925618  1.0
  P  P19  1  0.992747  0.948264  0.670257  1.0
  P  P20  1  0.651102  0.321465  0.169310  1.0
  P  P21  1  0.348898  0.678535  0.830690  1.0
  P  P22  1  0.670363  0.321465  0.669310  1.0
  P  P23  1  0.044483  0.051736  0.829743  1.0
  P  P24  1  0.428115  0.065456  0.300009  1.0
  P  P25  1  0.178013  0.540010  0.583530  1.0
  P  P26  1  0.329637  0.678535  0.330690  1.0
  P  P27  1  0.246058  0.151616  0.036540  1.0
  P  P28  1  0.094442  0.848384  0.463460  1.0
  P  P29  1  0.050911  0.344286  0.215861  1.0
  P  P30  1  0.949089  0.655714  0.784139  1.0
  P  P31  1  0.293375  0.344286  0.715861  1.0
  P  P32  1  0.361996  0.540010  0.083530  1.0
  P  P33  1  0.007253  0.051736  0.329743  1.0
  P  P34  1  0.362659  0.934544  0.199991  1.0
  P  P35  1  0.821987  0.459990  0.416470  1.0
  P  P36  1  0.498640  0.157853  0.574382  1.0
  P  P37  1  0.753942  0.848384  0.963460  1.0
  P  P38  1  0.034967  0.448193  0.950789  1.0
  P  P39  1  0.586775  0.551807  0.549211  1.0
  P  P40  1  0.659213  0.157853  0.074382  1.0
