# generated using pymatgen
data_Sr3(AlGe2)2
_symmetry_space_group_name_H-M   'P 1'
_cell_length_a   4.21660255
_cell_length_b   6.71034782
_cell_length_c   8.95514882
_cell_angle_alpha   109.11551116
_cell_angle_beta   90.00000000
_cell_angle_gamma   108.31171579
_symmetry_Int_Tables_number   1
_chemical_formula_structural   Sr3(AlGe2)2
_chemical_formula_sum   'Sr3 Al2 Ge4'
_cell_volume   225.78954019
_cell_formula_units_Z   1
loop_
 _symmetry_equiv_pos_site_id
 _symmetry_equiv_pos_as_xyz
  1  'x, y, z'
loop_
 _atom_site_type_symbol
 _atom_site_label
 _atom_site_symmetry_multiplicity
 _atom_site_fract_x
 _atom_site_fract_y
 _atom_site_fract_z
 _atom_site_occupancy
  Sr  Sr1  1  0.393984  0.787968  0.312978  1.0
  Sr  Sr2  1  0.000000  0.000000  0.000000  1.0
  Sr  Sr3  1  0.606016  0.212032  0.687022  1.0
  Al  Al4  1  0.294938  0.589875  0.650063  1.0
  Al  Al5  1  0.705062  0.410125  0.349937  1.0
  Ge  Ge6  1  0.288394  0.576789  0.944322  1.0
  Ge  Ge7  1  0.711606  0.423211  0.055678  1.0
  Ge  Ge8  1  0.106316  0.212631  0.391468  1.0
  Ge  Ge9  1  0.893684  0.787369  0.608532  1.0
