# generated using pymatgen
data_Tb
_symmetry_space_group_name_H-M   'P 1'
_cell_length_a   3.57609926
_cell_length_b   3.57609934
_cell_length_c   17.36712236
_cell_angle_alpha   90.00000000
_cell_angle_beta   90.00000000
_cell_angle_gamma   119.99999924
_symmetry_Int_Tables_number   1
_chemical_formula_structural   Tb
_chemical_formula_sum   Tb6
_cell_volume   192.34355490
_cell_formula_units_Z   6
loop_
 _symmetry_equiv_pos_site_id
 _symmetry_equiv_pos_as_xyz
  1  'x, y, z'
loop_
 _atom_site_type_symbol
 _atom_site_label
 _atom_site_symmetry_multiplicity
 _atom_site_fract_x
 _atom_site_fract_y
 _atom_site_fract_z
 _atom_site_occupancy
  Tb  Tb1  1  0.666667  0.333333  0.916738  1.0
  Tb  Tb2  1  0.000000  0.000000  0.250000  1.0
  Tb  Tb3  1  0.666667  0.333333  0.583262  1.0
  Tb  Tb4  1  0.333333  0.666667  0.416738  1.0
  Tb  Tb5  1  0.000000  0.000000  0.750000  1.0
  Tb  Tb6  1  0.333333  0.666667  0.083262  1.0
