# generated using pymatgen
data_Al3Mo
_symmetry_space_group_name_H-M   'P 1'
_cell_length_a   3.60496792
_cell_length_b   8.39725239
_cell_length_c   8.41941590
_cell_angle_alpha   101.59419576
_cell_angle_beta   102.36194096
_cell_angle_gamma   90.00000000
_symmetry_Int_Tables_number   1
_chemical_formula_structural   Al3Mo
_chemical_formula_sum   'Al12 Mo4'
_cell_volume   243.63523582
_cell_formula_units_Z   4
loop_
 _symmetry_equiv_pos_site_id
 _symmetry_equiv_pos_as_xyz
  1  'x, y, z'
loop_
 _atom_site_type_symbol
 _atom_site_label
 _atom_site_symmetry_multiplicity
 _atom_site_fract_x
 _atom_site_fract_y
 _atom_site_fract_z
 _atom_site_occupancy
  Al  Al1  1  0.628027  0.244393  0.256055  1.0
  Al  Al2  1  0.128024  0.502188  0.256048  1.0
  Al  Al3  1  0.622995  0.739253  0.245990  1.0
  Al  Al4  1  0.750093  0.046848  0.500185  1.0
  Al  Al5  1  0.251385  0.304869  0.502770  1.0
  Al  Al6  1  0.250276  0.795064  0.500552  1.0
  Al  Al7  1  0.873587  0.344141  0.747173  1.0
  Al  Al8  1  0.374880  0.603042  0.749761  1.0
  Al  Al9  1  0.874799  0.854057  0.749598  1.0
  Al  Al10  1  0.996758  0.143702  0.993515  1.0
  Al  Al11  1  0.496536  0.402115  0.993071  1.0
  Al  Al12  1  0.502639  0.906508  0.005278  1.0
  Mo  Mo13  1  0.135774  0.003130  0.271548  1.0
  Mo  Mo14  1  0.757668  0.552701  0.515337  1.0
  Mo  Mo15  1  0.367274  0.096015  0.734547  1.0
  Mo  Mo16  1  0.989286  0.644173  0.978573  1.0
