# generated using pymatgen
data_Cs2KCrF6
_symmetry_space_group_name_H-M   'P 1'
_cell_length_a   6.49322064
_cell_length_b   6.49322119
_cell_length_c   6.49322128
_cell_angle_alpha   59.99999953
_cell_angle_beta   59.99999673
_cell_angle_gamma   60.00000362
_symmetry_Int_Tables_number   1
_chemical_formula_structural   Cs2KCrF6
_chemical_formula_sum   'Cs2 K1 Cr1 F6'
_cell_volume   193.58226313
_cell_formula_units_Z   1
loop_
 _symmetry_equiv_pos_site_id
 _symmetry_equiv_pos_as_xyz
  1  'x, y, z'
loop_
 _atom_site_type_symbol
 _atom_site_label
 _atom_site_symmetry_multiplicity
 _atom_site_fract_x
 _atom_site_fract_y
 _atom_site_fract_z
 _atom_site_occupancy
  Cs  Cs1  1  0.750000  0.750000  0.750000  1.0
  Cs  Cs2  1  0.250000  0.250000  0.250000  1.0
  K  K3  1  0.500000  0.500000  0.500000  1.0
  Cr  Cr4  1  0.000000  0.000000  0.000000  1.0
  F  F5  1  0.213847  0.786153  0.786153  1.0
  F  F6  1  0.213847  0.786153  0.213847  1.0
  F  F7  1  0.786153  0.213847  0.786153  1.0
  F  F8  1  0.213847  0.213847  0.786153  1.0
  F  F9  1  0.786153  0.213847  0.213847  1.0
  F  F10  1  0.786153  0.786153  0.213847  1.0
