# generated using pymatgen
data_KTl2MoF6
_symmetry_space_group_name_H-M   'P 1'
_cell_length_a   6.55260102
_cell_length_b   6.55260148
_cell_length_c   6.55260072
_cell_angle_alpha   59.99999870
_cell_angle_beta   59.99999638
_cell_angle_gamma   59.99999696
_symmetry_Int_Tables_number   1
_chemical_formula_structural   KTl2MoF6
_chemical_formula_sum   'K1 Tl2 Mo1 F6'
_cell_volume   198.94185445
_cell_formula_units_Z   1
loop_
 _symmetry_equiv_pos_site_id
 _symmetry_equiv_pos_as_xyz
  1  'x, y, z'
loop_
 _atom_site_type_symbol
 _atom_site_label
 _atom_site_symmetry_multiplicity
 _atom_site_fract_x
 _atom_site_fract_y
 _atom_site_fract_z
 _atom_site_occupancy
  K  K1  1  0.500000  0.500000  0.500000  1.0
  Tl  Tl2  1  0.750000  0.750000  0.750000  1.0
  Tl  Tl3  1  0.250000  0.250000  0.250000  1.0
  Mo  Mo4  1  0.000000  0.000000  0.000000  1.0
  F  F5  1  0.226433  0.773567  0.773567  1.0
  F  F6  1  0.226433  0.773567  0.226433  1.0
  F  F7  1  0.773567  0.226433  0.773567  1.0
  F  F8  1  0.226433  0.226433  0.773567  1.0
  F  F9  1  0.773567  0.226433  0.226433  1.0
  F  F10  1  0.773567  0.773567  0.226433  1.0
