# generated using pymatgen
data_CsN3
_symmetry_space_group_name_H-M   'P 1'
_cell_length_a   6.25028742
_cell_length_b   6.25028775
_cell_length_c   6.25028749
_cell_angle_alpha   98.34782530
_cell_angle_beta   115.30323719
_cell_angle_gamma   115.30323372
_symmetry_Int_Tables_number   1
_chemical_formula_structural   CsN3
_chemical_formula_sum   'Cs2 N6'
_cell_volume   182.80849504
_cell_formula_units_Z   2
loop_
 _symmetry_equiv_pos_site_id
 _symmetry_equiv_pos_as_xyz
  1  'x, y, z'
loop_
 _atom_site_type_symbol
 _atom_site_label
 _atom_site_symmetry_multiplicity
 _atom_site_fract_x
 _atom_site_fract_y
 _atom_site_fract_z
 _atom_site_occupancy
  Cs  Cs1  1  0.000000  0.250000  0.250000  1.0
  Cs  Cs2  1  0.000000  0.750000  0.750000  1.0
  N  N3  1  0.500000  0.000000  0.500000  1.0
  N  N4  1  0.500000  0.874178  0.625822  1.0
  N  N5  1  0.751644  0.625822  0.125822  1.0
  N  N6  1  0.248356  0.374178  0.874178  1.0
  N  N7  1  0.500000  0.125822  0.374178  1.0
  N  N8  1  0.500000  0.500000  0.000000  1.0
