# generated using pymatgen
data_YCuTe2
_symmetry_space_group_name_H-M   'P 1'
_cell_length_a   8.67427428
_cell_length_b   4.35275113
_cell_length_c   6.92846492
_cell_angle_alpha   89.99999711
_cell_angle_beta   90.52487782
_cell_angle_gamma   120.11916496
_symmetry_Int_Tables_number   1
_chemical_formula_structural   YCuTe2
_chemical_formula_sum   'Y2 Cu2 Te4'
_cell_volume   226.26508177
_cell_formula_units_Z   2
loop_
 _symmetry_equiv_pos_site_id
 _symmetry_equiv_pos_as_xyz
  1  'x, y, z'
loop_
 _atom_site_type_symbol
 _atom_site_label
 _atom_site_symmetry_multiplicity
 _atom_site_fract_x
 _atom_site_fract_y
 _atom_site_fract_z
 _atom_site_occupancy
  Y  Y1  1  0.000000  0.000000  0.000000  1.0
  Y  Y2  1  0.500000  0.000000  0.000000  1.0
  Cu  Cu3  1  0.837479  0.337479  0.351204  1.0
  Cu  Cu4  1  0.162521  0.662521  0.648796  1.0
  Te  Te5  1  0.338569  0.338569  0.733531  1.0
  Te  Te6  1  0.825096  0.325096  0.738750  1.0
  Te  Te7  1  0.174904  0.674904  0.261250  1.0
  Te  Te8  1  0.661431  0.661431  0.266469  1.0
