# generated using pymatgen
data_KIn9Co2
_symmetry_space_group_name_H-M   'P 1'
_cell_length_a   8.86231161
_cell_length_b   8.86231130
_cell_length_c   4.29574950
_cell_angle_alpha   90.00000000
_cell_angle_beta   90.00000000
_cell_angle_gamma   120.00000111
_symmetry_Int_Tables_number   1
_chemical_formula_structural   KIn9Co2
_chemical_formula_sum   'K1 In9 Co2'
_cell_volume   292.18881861
_cell_formula_units_Z   1
loop_
 _symmetry_equiv_pos_site_id
 _symmetry_equiv_pos_as_xyz
  1  'x, y, z'
loop_
 _atom_site_type_symbol
 _atom_site_label
 _atom_site_symmetry_multiplicity
 _atom_site_fract_x
 _atom_site_fract_y
 _atom_site_fract_z
 _atom_site_occupancy
  K  K1  1  0.000000  0.000000  0.000000  1.0
  In  In2  1  0.790802  0.581603  0.500000  1.0
  In  In3  1  0.500000  0.500000  0.000000  1.0
  In  In4  1  0.500000  0.000000  0.000000  1.0
  In  In5  1  0.418397  0.209198  0.500000  1.0
  In  In6  1  0.209198  0.418397  0.500000  1.0
  In  In7  1  0.209198  0.790802  0.500000  1.0
  In  In8  1  0.581603  0.790802  0.500000  1.0
  In  In9  1  0.000000  0.500000  0.000000  1.0
  In  In10  1  0.790802  0.209198  0.500000  1.0
  Co  Co11  1  0.666667  0.333333  0.000000  1.0
  Co  Co12  1  0.333333  0.666667  0.000000  1.0
