# generated using pymatgen
data_Mn3O4
_symmetry_space_group_name_H-M   'P 1'
_cell_length_a   5.87428361
_cell_length_b   6.34999263
_cell_length_c   5.87614252
_cell_angle_alpha   62.28741774
_cell_angle_beta   90.00000283
_cell_angle_gamma   62.44870087
_symmetry_Int_Tables_number   1
_chemical_formula_structural   Mn3O4
_chemical_formula_sum   'Mn6 O8'
_cell_volume   165.45501007
_cell_formula_units_Z   2
loop_
 _symmetry_equiv_pos_site_id
 _symmetry_equiv_pos_as_xyz
  1  'x, y, z'
loop_
 _atom_site_type_symbol
 _atom_site_label
 _atom_site_symmetry_multiplicity
 _atom_site_fract_x
 _atom_site_fract_y
 _atom_site_fract_z
 _atom_site_occupancy
  Mn  Mn1  1  0.125146  0.249709  0.374018  1.0
  Mn  Mn2  1  0.874854  0.750291  0.625982  1.0
  Mn  Mn3  1  0.500000  0.500000  0.500000  1.0
  Mn  Mn4  1  0.000000  0.000000  0.000000  1.0
  Mn  Mn5  1  0.500000  0.000000  0.000000  1.0
  Mn  Mn6  1  0.500000  0.500000  0.000000  1.0
  O  O7  1  0.269925  0.515114  0.241417  1.0
  O  O8  1  0.257947  0.984106  0.228560  1.0
  O  O9  1  0.741692  0.016615  0.214397  1.0
  O  O10  1  0.742053  0.015894  0.771440  1.0
  O  O11  1  0.285039  0.484886  0.758583  1.0
  O  O12  1  0.730075  0.484886  0.758583  1.0
  O  O13  1  0.714961  0.515114  0.241417  1.0
  O  O14  1  0.258308  0.983385  0.785603  1.0
