# generated using pymatgen
data_Si(NiO2)2
_symmetry_space_group_name_H-M   'P 1'
_cell_length_a   5.73807020
_cell_length_b   5.73807027
_cell_length_c   5.73807068
_cell_angle_alpha   60.00000342
_cell_angle_beta   60.00000299
_cell_angle_gamma   60.00000579
_symmetry_Int_Tables_number   1
_chemical_formula_structural   Si(NiO2)2
_chemical_formula_sum   'Si2 Ni4 O8'
_cell_volume   133.59267783
_cell_formula_units_Z   2
loop_
 _symmetry_equiv_pos_site_id
 _symmetry_equiv_pos_as_xyz
  1  'x, y, z'
loop_
 _atom_site_type_symbol
 _atom_site_label
 _atom_site_symmetry_multiplicity
 _atom_site_fract_x
 _atom_site_fract_y
 _atom_site_fract_z
 _atom_site_occupancy
  Si  Si1  1  0.125000  0.125000  0.125000  1.0
  Si  Si2  1  0.875000  0.875000  0.875000  1.0
  Ni  Ni3  1  0.500000  0.500001  0.500000  1.0
  Ni  Ni4  1  0.500000  0.500001  0.999999  1.0
  Ni  Ni5  1  0.000000  0.500001  0.499999  1.0
  Ni  Ni6  1  0.500000  0.000000  0.500000  1.0
  O  O7  1  0.756122  0.756122  0.756122  1.0
  O  O8  1  0.243878  0.243878  0.768365  1.0
  O  O9  1  0.243878  0.768365  0.243878  1.0
  O  O10  1  0.768364  0.243878  0.243878  1.0
  O  O11  1  0.756122  0.231635  0.756123  1.0
  O  O12  1  0.231636  0.756122  0.756122  1.0
  O  O13  1  0.243878  0.243878  0.243878  1.0
  O  O14  1  0.756122  0.756122  0.231635  1.0
