# generated using pymatgen
data_WO3
_symmetry_space_group_name_H-M   'P 1'
_cell_length_a   5.40736096
_cell_length_b   5.40736096
_cell_length_c   7.81784495
_cell_angle_alpha   90.00000000
_cell_angle_beta   90.00000000
_cell_angle_gamma   90.00000000
_symmetry_Int_Tables_number   1
_chemical_formula_structural   WO3
_chemical_formula_sum   'W4 O12'
_cell_volume   228.59028826
_cell_formula_units_Z   4
loop_
 _symmetry_equiv_pos_site_id
 _symmetry_equiv_pos_as_xyz
  1  'x, y, z'
loop_
 _atom_site_type_symbol
 _atom_site_label
 _atom_site_symmetry_multiplicity
 _atom_site_fract_x
 _atom_site_fract_y
 _atom_site_fract_z
 _atom_site_occupancy
  W  W1  1  0.750000  0.750000  0.230281  1.0
  W  W2  1  0.750000  0.750000  0.730281  1.0
  W  W3  1  0.250000  0.250000  0.269719  1.0
  W  W4  1  0.250000  0.250000  0.769719  1.0
  O  O5  1  0.029456  0.529456  0.750000  1.0
  O  O6  1  0.529456  0.029456  0.250000  1.0
  O  O7  1  0.029456  0.970544  0.250000  1.0
  O  O8  1  0.970544  0.470544  0.250000  1.0
  O  O9  1  0.529456  0.470544  0.750000  1.0
  O  O10  1  0.470544  0.970544  0.750000  1.0
  O  O11  1  0.970544  0.029456  0.750000  1.0
  O  O12  1  0.470544  0.529456  0.250000  1.0
  O  O13  1  0.750000  0.750000  0.995442  1.0
  O  O14  1  0.250000  0.250000  0.504558  1.0
  O  O15  1  0.750000  0.750000  0.495442  1.0
  O  O16  1  0.250000  0.250000  0.004558  1.0
