# generated using pymatgen
data_BaSb3
_symmetry_space_group_name_H-M   'P 1'
_cell_length_a   6.57745604
_cell_length_b   6.98822594
_cell_length_c   6.98822594
_cell_angle_alpha   76.26040979
_cell_angle_beta   72.24896262
_cell_angle_gamma   72.24896271
_symmetry_Int_Tables_number   1
_chemical_formula_structural   BaSb3
_chemical_formula_sum   'Ba2 Sb6'
_cell_volume   287.63065378
_cell_formula_units_Z   2
loop_
 _symmetry_equiv_pos_site_id
 _symmetry_equiv_pos_as_xyz
  1  'x, y, z'
loop_
 _atom_site_type_symbol
 _atom_site_label
 _atom_site_symmetry_multiplicity
 _atom_site_fract_x
 _atom_site_fract_y
 _atom_site_fract_z
 _atom_site_occupancy
  Ba  Ba1  1  0.178599  0.665364  0.665364  1.0
  Ba  Ba2  1  0.821401  0.334636  0.334636  1.0
  Sb  Sb3  1  0.297251  0.142259  0.583084  1.0
  Sb  Sb4  1  0.702749  0.416916  0.857741  1.0
  Sb  Sb5  1  0.271443  0.012713  0.012713  1.0
  Sb  Sb6  1  0.728557  0.987287  0.987287  1.0
  Sb  Sb7  1  0.297251  0.583084  0.142259  1.0
  Sb  Sb8  1  0.702749  0.857741  0.416916  1.0
