# generated using pymatgen
data_Na2CrO4
_symmetry_space_group_name_H-M   'P 1'
_cell_length_a   5.55851168
_cell_length_b   5.55851169
_cell_length_c   7.18656922
_cell_angle_alpha   90.00000000
_cell_angle_beta   90.00000000
_cell_angle_gamma   114.83650020
_symmetry_Int_Tables_number   1
_chemical_formula_structural   Na2CrO4
_chemical_formula_sum   'Na4 Cr2 O8'
_cell_volume   201.50699098
_cell_formula_units_Z   2
loop_
 _symmetry_equiv_pos_site_id
 _symmetry_equiv_pos_as_xyz
  1  'x, y, z'
loop_
 _atom_site_type_symbol
 _atom_site_label
 _atom_site_symmetry_multiplicity
 _atom_site_fract_x
 _atom_site_fract_y
 _atom_site_fract_z
 _atom_site_occupancy
  Na  Na1  1  0.183052  0.816948  0.750000  1.0
  Na  Na2  1  0.816948  0.183052  0.250000  1.0
  Na  Na3  1  0.500000  0.500000  0.500000  1.0
  Na  Na4  1  0.500000  0.500000  0.000000  1.0
  Cr  Cr5  1  0.853693  0.146307  0.750000  1.0
  Cr  Cr6  1  0.146307  0.853693  0.250000  1.0
  O  O7  1  0.249313  0.750687  0.062585  1.0
  O  O8  1  0.750687  0.249313  0.562585  1.0
  O  O9  1  0.750687  0.249313  0.937415  1.0
  O  O10  1  0.249313  0.750687  0.437415  1.0
  O  O11  1  0.185746  0.269277  0.750000  1.0
  O  O12  1  0.814254  0.730723  0.250000  1.0
  O  O13  1  0.730723  0.814254  0.750000  1.0
  O  O14  1  0.269277  0.185746  0.250000  1.0
