# generated using pymatgen
data_SiO2
_symmetry_space_group_name_H-M   'P 1'
_cell_length_a   3.80975655
_cell_length_b   3.80565651
_cell_length_c   3.80571783
_cell_angle_alpha   89.99168873
_cell_angle_beta   90.00158479
_cell_angle_gamma   90.00880820
_symmetry_Int_Tables_number   1
_chemical_formula_structural   SiO2
_chemical_formula_sum   'Si2 O4'
_cell_volume   55.17767372
_cell_formula_units_Z   2
loop_
 _symmetry_equiv_pos_site_id
 _symmetry_equiv_pos_as_xyz
  1  'x, y, z'
loop_
 _atom_site_type_symbol
 _atom_site_label
 _atom_site_symmetry_multiplicity
 _atom_site_fract_x
 _atom_site_fract_y
 _atom_site_fract_z
 _atom_site_occupancy
  Si  Si1  1  0.809426  0.111265  0.918288  1.0
  Si  Si2  1  0.309284  0.611296  0.418429  1.0
  O  O3  1  0.558678  0.861631  0.668668  1.0
  O  O4  1  0.059394  0.860871  0.167869  1.0
  O  O5  1  0.560030  0.361572  0.168740  1.0
  O  O6  1  0.059300  0.360904  0.667986  1.0
