# generated using pymatgen
data_Na2WO4
_symmetry_space_group_name_H-M   'P 1'
_cell_length_a   6.56267552
_cell_length_b   6.56267553
_cell_length_c   6.56267553
_cell_angle_alpha   60.00000003
_cell_angle_beta   60.00000001
_cell_angle_gamma   60.00000002
_symmetry_Int_Tables_number   1
_chemical_formula_structural   Na2WO4
_chemical_formula_sum   'Na4 W2 O8'
_cell_volume   199.86088182
_cell_formula_units_Z   2
loop_
 _symmetry_equiv_pos_site_id
 _symmetry_equiv_pos_as_xyz
  1  'x, y, z'
loop_
 _atom_site_type_symbol
 _atom_site_label
 _atom_site_symmetry_multiplicity
 _atom_site_fract_x
 _atom_site_fract_y
 _atom_site_fract_z
 _atom_site_occupancy
  Na  Na1  1  0.500000  0.000000  0.500000  1.0
  Na  Na2  1  0.000000  0.500000  0.500000  1.0
  Na  Na3  1  0.500000  0.500000  0.000000  1.0
  Na  Na4  1  0.500000  0.500000  0.500000  1.0
  W  W5  1  0.125000  0.125000  0.125000  1.0
  W  W6  1  0.875000  0.875000  0.875000  1.0
  O  O7  1  0.761551  0.761551  0.761551  1.0
  O  O8  1  0.238449  0.238449  0.784652  1.0
  O  O9  1  0.238449  0.784652  0.238449  1.0
  O  O10  1  0.784652  0.238449  0.238449  1.0
  O  O11  1  0.761551  0.215348  0.761551  1.0
  O  O12  1  0.215348  0.761551  0.761551  1.0
  O  O13  1  0.238449  0.238449  0.238449  1.0
  O  O14  1  0.761551  0.761551  0.215348  1.0
