# generated using pymatgen
data_Fe2SiO4
_symmetry_space_group_name_H-M   'P 1'
_cell_length_a   5.89834761
_cell_length_b   5.89834761
_cell_length_c   5.89834761
_cell_angle_alpha   60.00000000
_cell_angle_beta   60.00000000
_cell_angle_gamma   60.00000000
_symmetry_Int_Tables_number   1
_chemical_formula_structural   Fe2SiO4
_chemical_formula_sum   'Fe4 Si2 O8'
_cell_volume   145.10290008
_cell_formula_units_Z   2
loop_
 _symmetry_equiv_pos_site_id
 _symmetry_equiv_pos_as_xyz
  1  'x, y, z'
loop_
 _atom_site_type_symbol
 _atom_site_label
 _atom_site_symmetry_multiplicity
 _atom_site_fract_x
 _atom_site_fract_y
 _atom_site_fract_z
 _atom_site_occupancy
  Fe  Fe1  1  0.375000  0.375000  0.375000  1.0
  Fe  Fe2  1  0.375000  0.375000  0.875000  1.0
  Fe  Fe3  1  0.375000  0.875000  0.375000  1.0
  Fe  Fe4  1  0.875000  0.375000  0.375000  1.0
  Si  Si5  1  0.000000  0.000000  0.000000  1.0
  Si  Si6  1  0.750000  0.750000  0.750000  1.0
  O  O7  1  0.652738  0.115754  0.115754  1.0
  O  O8  1  0.115754  0.652738  0.115754  1.0
  O  O9  1  0.115754  0.115754  0.652738  1.0
  O  O10  1  0.115754  0.115754  0.115754  1.0
  O  O11  1  0.097262  0.634246  0.634246  1.0
  O  O12  1  0.634246  0.097262  0.634246  1.0
  O  O13  1  0.634246  0.634246  0.097262  1.0
  O  O14  1  0.634246  0.634246  0.634246  1.0
