# generated using pymatgen
data_Ni2P2O7
_symmetry_space_group_name_H-M   'P 1'
_cell_length_a   4.51647072
_cell_length_b   5.28464443
_cell_length_c   5.28464443
_cell_angle_alpha   104.16707018
_cell_angle_beta   98.01303498
_cell_angle_gamma   98.01303499
_symmetry_Int_Tables_number   1
_chemical_formula_structural   Ni2P2O7
_chemical_formula_sum   'Ni2 P2 O7'
_cell_volume   119.10922182
_cell_formula_units_Z   1
loop_
 _symmetry_equiv_pos_site_id
 _symmetry_equiv_pos_as_xyz
  1  'x, y, z'
loop_
 _atom_site_type_symbol
 _atom_site_label
 _atom_site_symmetry_multiplicity
 _atom_site_fract_x
 _atom_site_fract_y
 _atom_site_fract_z
 _atom_site_occupancy
  Ni  Ni1  1  0.500000  0.313615  0.686384  1.0
  Ni  Ni2  1  0.500001  0.686384  0.313615  1.0
  P  P3  1  0.907279  0.219664  0.219662  1.0
  P  P4  1  0.092721  0.780338  0.780337  1.0
  O  O5  1  0.277047  0.925596  0.618076  1.0
  O  O6  1  0.722952  0.381924  0.074405  1.0
  O  O7  1  0.722953  0.074405  0.381925  1.0
  O  O8  1  0.277047  0.618075  0.925595  1.0
  O  O9  1  0.000000  0.000000  0.000000  1.0
  O  O10  1  0.216166  0.379845  0.379844  1.0
  O  O11  1  0.783834  0.620156  0.620155  1.0
