# generated using pymatgen
data_Mg2Cu
_symmetry_space_group_name_H-M   'P 1'
_cell_length_a   5.28829130
_cell_length_b   6.28512414
_cell_length_c   5.29042772
_cell_angle_alpha   126.44090085
_cell_angle_beta   59.38305607
_cell_angle_gamma   126.45972555
_symmetry_Int_Tables_number   1
_chemical_formula_structural   Mg2Cu
_chemical_formula_sum   'Mg4 Cu2'
_cell_volume   110.40167918
_cell_formula_units_Z   2
loop_
 _symmetry_equiv_pos_site_id
 _symmetry_equiv_pos_as_xyz
  1  'x, y, z'
loop_
 _atom_site_type_symbol
 _atom_site_label
 _atom_site_symmetry_multiplicity
 _atom_site_fract_x
 _atom_site_fract_y
 _atom_site_fract_z
 _atom_site_occupancy
  Mg  Mg1  1  0.911310  0.072567  0.077541  1.0
  Mg  Mg2  1  0.255356  0.094098  0.422455  1.0
  Mg  Mg3  1  0.411301  0.749635  0.577534  1.0
  Mg  Mg4  1  0.755368  0.417033  0.922467  1.0
  Cu  Cu5  1  0.333338  0.583540  0.000006  1.0
  Cu  Cu6  1  0.833330  0.583126  0.499993  1.0
