# generated using pymatgen
data_BaDyCuTe3
_symmetry_space_group_name_H-M   'P 1'
_cell_length_a   4.43938467
_cell_length_b   7.82052383
_cell_length_c   11.43505790
_cell_angle_alpha   90.00000000
_cell_angle_beta   90.00000000
_cell_angle_gamma   106.48887166
_symmetry_Int_Tables_number   1
_chemical_formula_structural   BaDyCuTe3
_chemical_formula_sum   'Ba2 Dy2 Cu2 Te6'
_cell_volume   380.67900987
_cell_formula_units_Z   2
loop_
 _symmetry_equiv_pos_site_id
 _symmetry_equiv_pos_as_xyz
  1  'x, y, z'
loop_
 _atom_site_type_symbol
 _atom_site_label
 _atom_site_symmetry_multiplicity
 _atom_site_fract_x
 _atom_site_fract_y
 _atom_site_fract_z
 _atom_site_occupancy
  Ba  Ba1  1  0.250717  0.501434  0.250000  1.0
  Ba  Ba2  1  0.749283  0.498566  0.750000  1.0
  Dy  Dy3  1  0.500000  0.000000  0.500000  1.0
  Dy  Dy4  1  0.500000  0.000000  0.000000  1.0
  Cu  Cu5  1  0.032101  0.064202  0.750000  1.0
  Cu  Cu6  1  0.967899  0.935798  0.250000  1.0
  Te  Te7  1  0.863948  0.727897  0.438848  1.0
  Te  Te8  1  0.136052  0.272103  0.561152  1.0
  Te  Te9  1  0.136052  0.272103  0.938848  1.0
  Te  Te10  1  0.863948  0.727897  0.061152  1.0
  Te  Te11  1  0.429566  0.859132  0.750000  1.0
  Te  Te12  1  0.570434  0.140868  0.250000  1.0
