# generated using pymatgen
data_BaFeF4
_symmetry_space_group_name_H-M   'P 1'
_cell_length_a   4.30916522
_cell_length_b   5.89726639
_cell_length_c   7.92033874
_cell_angle_alpha   90.00000000
_cell_angle_beta   105.78519610
_cell_angle_gamma   90.00000000
_symmetry_Int_Tables_number   1
_chemical_formula_structural   BaFeF4
_chemical_formula_sum   'Ba2 Fe2 F8'
_cell_volume   193.68360460
_cell_formula_units_Z   2
loop_
 _symmetry_equiv_pos_site_id
 _symmetry_equiv_pos_as_xyz
  1  'x, y, z'
loop_
 _atom_site_type_symbol
 _atom_site_label
 _atom_site_symmetry_multiplicity
 _atom_site_fract_x
 _atom_site_fract_y
 _atom_site_fract_z
 _atom_site_occupancy
  Ba  Ba1  1  0.846827  0.963499  0.693654  1.0
  Ba  Ba2  1  0.153173  0.463499  0.306346  1.0
  Fe  Fe3  1  0.414152  0.505460  0.828304  1.0
  Fe  Fe4  1  0.585848  0.005460  0.171696  1.0
  F  F5  1  0.917335  0.519169  0.834669  1.0
  F  F6  1  0.082665  0.019169  0.165331  1.0
  F  F7  1  0.467488  0.852188  0.934976  1.0
  F  F8  1  0.532512  0.352188  0.065024  1.0
  F  F9  1  0.697657  0.201467  0.395314  1.0
  F  F10  1  0.302343  0.701467  0.604686  1.0
  F  F11  1  0.670098  0.730617  0.340196  1.0
  F  F12  1  0.329902  0.230617  0.659804  1.0
