# generated using pymatgen
data_Ni5O6
_symmetry_space_group_name_H-M   'P 1'
_cell_length_a   5.20180938
_cell_length_b   5.09807636
_cell_length_c   5.09717890
_cell_angle_alpha   118.17569221
_cell_angle_beta   79.08369768
_cell_angle_gamma   79.10726760
_symmetry_Int_Tables_number   1
_chemical_formula_structural   Ni5O6
_chemical_formula_sum   'Ni5 O6'
_cell_volume   110.78278144
_cell_formula_units_Z   1
loop_
 _symmetry_equiv_pos_site_id
 _symmetry_equiv_pos_as_xyz
  1  'x, y, z'
loop_
 _atom_site_type_symbol
 _atom_site_label
 _atom_site_symmetry_multiplicity
 _atom_site_fract_x
 _atom_site_fract_y
 _atom_site_fract_z
 _atom_site_occupancy
  Ni  Ni1  1  0.000000  0.666667  0.333333  1.0
  Ni  Ni2  1  0.000228  0.005690  0.994416  1.0
  Ni  Ni3  1  0.499946  0.836676  0.163636  1.0
  Ni  Ni4  1  0.500054  0.496657  0.503030  1.0
  Ni  Ni5  1  0.999772  0.327643  0.672250  1.0
  O  O6  1  0.233487  0.263817  0.299238  1.0
  O  O7  1  0.214800  0.922969  0.589491  1.0
  O  O8  1  0.233629  0.632711  0.930431  1.0
  O  O9  1  0.766513  0.069517  0.367428  1.0
  O  O10  1  0.785200  0.410365  0.077176  1.0
  O  O11  1  0.766371  0.700622  0.736235  1.0
