# generated using pymatgen
data_GeAs
_symmetry_space_group_name_H-M   'P 1'
_cell_length_a   3.83325888
_cell_length_b   8.54258708
_cell_length_c   9.90234887
_cell_angle_alpha   104.43334356
_cell_angle_beta   90.00000000
_cell_angle_gamma   102.96534723
_symmetry_Int_Tables_number   1
_chemical_formula_structural   GeAs
_chemical_formula_sum   'Ge6 As6'
_cell_volume   305.48395995
_cell_formula_units_Z   6
loop_
 _symmetry_equiv_pos_site_id
 _symmetry_equiv_pos_as_xyz
  1  'x, y, z'
loop_
 _atom_site_type_symbol
 _atom_site_label
 _atom_site_symmetry_multiplicity
 _atom_site_fract_x
 _atom_site_fract_y
 _atom_site_fract_z
 _atom_site_occupancy
  Ge  Ge1  1  0.259813  0.519626  0.210044  1.0
  Ge  Ge2  1  0.740187  0.480374  0.789956  1.0
  Ge  Ge3  1  0.369296  0.738591  0.079712  1.0
  Ge  Ge4  1  0.630704  0.261409  0.920288  1.0
  Ge  Ge5  1  0.932550  0.865101  0.408643  1.0
  Ge  Ge6  1  0.067450  0.134899  0.591357  1.0
  As  As7  1  0.661103  0.322206  0.179805  1.0
  As  As8  1  0.338897  0.677794  0.820195  1.0
  As  As9  1  0.963299  0.926597  0.172614  1.0
  As  As10  1  0.036701  0.073403  0.827386  1.0
  As  As11  1  0.346453  0.692905  0.453884  1.0
  As  As12  1  0.653547  0.307095  0.546116  1.0
