# generated using pymatgen
data_Ba2CuH6
_symmetry_space_group_name_H-M   'P 1'
_cell_length_a   7.88926030
_cell_length_b   7.88926030
_cell_length_c   5.85575791
_cell_angle_alpha   90.00000000
_cell_angle_beta   90.00000000
_cell_angle_gamma   136.41056655
_symmetry_Int_Tables_number   1
_chemical_formula_structural   Ba2CuH6
_chemical_formula_sum   'Ba4 Cu2 H12'
_cell_volume   251.29342411
_cell_formula_units_Z   2
loop_
 _symmetry_equiv_pos_site_id
 _symmetry_equiv_pos_as_xyz
  1  'x, y, z'
loop_
 _atom_site_type_symbol
 _atom_site_label
 _atom_site_symmetry_multiplicity
 _atom_site_fract_x
 _atom_site_fract_y
 _atom_site_fract_z
 _atom_site_occupancy
  Ba  Ba1  1  0.141831  0.858169  0.500000  1.0
  Ba  Ba2  1  0.641831  0.358169  0.000000  1.0
  Ba  Ba3  1  0.858169  0.141831  0.500000  1.0
  Ba  Ba4  1  0.358169  0.641831  0.000000  1.0
  Cu  Cu5  1  0.500000  0.500000  0.500000  1.0
  Cu  Cu6  1  0.000000  0.000000  0.000000  1.0
  H  H7  1  0.000270  0.500270  0.750000  1.0
  H  H8  1  0.499730  0.999730  0.250000  1.0
  H  H9  1  0.999730  0.499730  0.250000  1.0
  H  H10  1  0.500270  0.000270  0.750000  1.0
  H  H11  1  0.391020  0.608980  0.500000  1.0
  H  H12  1  0.891020  0.108980  0.000000  1.0
  H  H13  1  0.608980  0.391020  0.500000  1.0
  H  H14  1  0.108980  0.891020  0.000000  1.0
  H  H15  1  0.291850  0.291850  0.707056  1.0
  H  H16  1  0.708150  0.708150  0.292944  1.0
  H  H17  1  0.208150  0.208150  0.207056  1.0
  H  H18  1  0.791850  0.791850  0.792944  1.0
