# generated using pymatgen
data_Np3S5
_symmetry_space_group_name_H-M   'P 1'
_cell_length_a   11.49647273
_cell_length_b   7.92354577
_cell_length_c   7.30899450
_cell_angle_alpha   89.95802713
_cell_angle_beta   90.02016888
_cell_angle_gamma   89.99159083
_symmetry_Int_Tables_number   1
_chemical_formula_structural   Np3S5
_chemical_formula_sum   'Np12 S20'
_cell_volume   665.79675079
_cell_formula_units_Z   4
loop_
 _symmetry_equiv_pos_site_id
 _symmetry_equiv_pos_as_xyz
  1  'x, y, z'
loop_
 _atom_site_type_symbol
 _atom_site_label
 _atom_site_symmetry_multiplicity
 _atom_site_fract_x
 _atom_site_fract_y
 _atom_site_fract_z
 _atom_site_occupancy
  Np  Np1  1  0.178398  0.003297  0.522697  1.0
  Np  Np2  1  0.321046  0.997546  0.023869  1.0
  Np  Np3  1  0.679122  0.496259  0.977291  1.0
  Np  Np4  1  0.821511  0.501903  0.476707  1.0
  Np  Np5  1  0.821536  0.998111  0.476629  1.0
  Np  Np6  1  0.679175  0.003710  0.977440  1.0
  Np  Np7  1  0.321075  0.502487  0.024080  1.0
  Np  Np8  1  0.178373  0.496635  0.522698  1.0
  Np  Np9  1  0.008245  0.250028  0.077477  1.0
  Np  Np10  1  0.491309  0.749979  0.575259  1.0
  Np  Np11  1  0.508743  0.250050  0.423134  1.0
  Np  Np12  1  0.990830  0.749960  0.924194  1.0
  S  S13  1  0.191134  0.250031  0.830942  1.0
  S  S14  1  0.309335  0.749910  0.331741  1.0
  S  S15  1  0.690588  0.250074  0.667964  1.0
  S  S16  1  0.809870  0.749975  0.167795  1.0
  S  S17  1  0.999124  0.250008  0.462805  1.0
  S  S18  1  0.500854  0.749908  0.962591  1.0
  S  S19  1  0.499148  0.250105  0.038183  1.0
  S  S20  1  0.000651  0.749987  0.537150  1.0
  S  S21  1  0.096067  0.548582  0.170102  1.0
  S  S22  1  0.403626  0.453442  0.670055  1.0
  S  S23  1  0.595848  0.954233  0.330594  1.0
  S  S24  1  0.904016  0.045525  0.828565  1.0
  S  S25  1  0.903920  0.454392  0.828666  1.0
  S  S26  1  0.595886  0.545672  0.330487  1.0
  S  S27  1  0.403646  0.046660  0.669945  1.0
  S  S28  1  0.096052  0.951518  0.170123  1.0
  S  S29  1  0.281865  0.250066  0.300732  1.0
  S  S30  1  0.218083  0.749911  0.801072  1.0
  S  S31  1  0.781886  0.250096  0.199031  1.0
  S  S32  1  0.719039  0.749952  0.699985  1.0
