# generated using pymatgen
data_Pr2(ReB2)3
_symmetry_space_group_name_H-M   'P 1'
_cell_length_a   6.34678797
_cell_length_b   6.34678797
_cell_length_c   7.64084139
_cell_angle_alpha   90.55601632
_cell_angle_beta   90.55601630
_cell_angle_gamma   114.84515312
_symmetry_Int_Tables_number   1
_chemical_formula_structural   Pr2(ReB2)3
_chemical_formula_sum   'Pr4 Re6 B12'
_cell_volume   279.25420112
_cell_formula_units_Z   2
loop_
 _symmetry_equiv_pos_site_id
 _symmetry_equiv_pos_as_xyz
  1  'x, y, z'
loop_
 _atom_site_type_symbol
 _atom_site_label
 _atom_site_symmetry_multiplicity
 _atom_site_fract_x
 _atom_site_fract_y
 _atom_site_fract_z
 _atom_site_occupancy
  Pr  Pr1  1  0.441102  0.092671  0.826248  1.0
  Pr  Pr2  1  0.907329  0.558898  0.673752  1.0
  Pr  Pr3  1  0.558898  0.907329  0.173752  1.0
  Pr  Pr4  1  0.092671  0.441102  0.326248  1.0
  Re  Re5  1  0.416198  0.583802  0.750000  1.0
  Re  Re6  1  0.583802  0.416198  0.250000  1.0
  Re  Re7  1  0.804863  0.989280  0.587438  1.0
  Re  Re8  1  0.010720  0.195137  0.912562  1.0
  Re  Re9  1  0.195137  0.010720  0.412562  1.0
  Re  Re10  1  0.989280  0.804863  0.087438  1.0
  B  B11  1  0.152817  0.242888  0.632386  1.0
  B  B12  1  0.757112  0.847183  0.867614  1.0
  B  B13  1  0.847183  0.757112  0.367614  1.0
  B  B14  1  0.242888  0.152817  0.132386  1.0
  B  B15  1  0.158315  0.584789  0.980108  1.0
  B  B16  1  0.415211  0.841685  0.519892  1.0
  B  B17  1  0.841685  0.415211  0.019892  1.0
  B  B18  1  0.584789  0.158315  0.480108  1.0
  B  B19  1  0.349763  0.440419  0.033097  1.0
  B  B20  1  0.559581  0.650237  0.466903  1.0
  B  B21  1  0.650237  0.559581  0.966903  1.0
  B  B22  1  0.440419  0.349763  0.533097  1.0
