# generated using pymatgen
data_NiGe2
_symmetry_space_group_name_H-M   'P 1'
_cell_length_a   5.80088314
_cell_length_b   5.80425680
_cell_length_c   6.17940974
_cell_angle_alpha   118.01125009
_cell_angle_beta   90.00000000
_cell_angle_gamma   90.00000000
_symmetry_Int_Tables_number   1
_chemical_formula_structural   NiGe2
_chemical_formula_sum   'Ni4 Ge8'
_cell_volume   183.68652727
_cell_formula_units_Z   4
loop_
 _symmetry_equiv_pos_site_id
 _symmetry_equiv_pos_as_xyz
  1  'x, y, z'
loop_
 _atom_site_type_symbol
 _atom_site_label
 _atom_site_symmetry_multiplicity
 _atom_site_fract_x
 _atom_site_fract_y
 _atom_site_fract_z
 _atom_site_occupancy
  Ni  Ni1  1  0.000000  0.115509  0.231018  1.0
  Ni  Ni2  1  0.500000  0.384491  0.768982  1.0
  Ni  Ni3  1  0.000000  0.884491  0.768982  1.0
  Ni  Ni4  1  0.500000  0.615509  0.231018  1.0
  Ge  Ge5  1  0.343331  0.845670  0.000000  1.0
  Ge  Ge6  1  0.843331  0.654330  0.000000  1.0
  Ge  Ge7  1  0.156669  0.345670  0.000000  1.0
  Ge  Ge8  1  0.656669  0.154330  0.000000  1.0
  Ge  Ge9  1  0.250000  0.002312  0.500000  1.0
  Ge  Ge10  1  0.750000  0.497688  0.500000  1.0
  Ge  Ge11  1  0.750000  0.997688  0.500000  1.0
  Ge  Ge12  1  0.250000  0.502312  0.500000  1.0
