# generated using pymatgen
data_Sr2NiTeO6
_symmetry_space_group_name_H-M   'P 1'
_cell_length_a   5.64530176
_cell_length_b   5.66471941
_cell_length_c   5.64928332
_cell_angle_alpha   60.67897113
_cell_angle_beta   60.02331149
_cell_angle_gamma   60.11332681
_symmetry_Int_Tables_number   1
_chemical_formula_structural   Sr2NiTeO6
_chemical_formula_sum   'Sr2 Ni1 Te1 O6'
_cell_volume   128.52120980
_cell_formula_units_Z   1
loop_
 _symmetry_equiv_pos_site_id
 _symmetry_equiv_pos_as_xyz
  1  'x, y, z'
loop_
 _atom_site_type_symbol
 _atom_site_label
 _atom_site_symmetry_multiplicity
 _atom_site_fract_x
 _atom_site_fract_y
 _atom_site_fract_z
 _atom_site_occupancy
  Sr  Sr1  1  0.249817  0.245967  0.254399  1.0
  Sr  Sr2  1  0.750183  0.754033  0.745601  1.0
  Ni  Ni3  1  0.500000  0.500000  0.500000  1.0
  Te  Te4  1  0.000000  0.000000  0.000000  1.0
  O  O5  1  0.276471  0.204767  0.727212  1.0
  O  O6  1  0.208450  0.795233  0.272788  1.0
  O  O7  1  0.723529  0.795233  0.272788  1.0
  O  O8  1  0.791550  0.204767  0.727212  1.0
  O  O9  1  0.240436  0.696682  0.822446  1.0
  O  O10  1  0.759564  0.303318  0.177554  1.0
