# generated using pymatgen
data_Ca(GeRu)2
_symmetry_space_group_name_H-M   'P 1'
_cell_length_a   4.29077793
_cell_length_b   4.29077793
_cell_length_c   5.86984111
_cell_angle_alpha   111.43795877
_cell_angle_beta   111.43795878
_cell_angle_gamma   89.99999999
_symmetry_Int_Tables_number   1
_chemical_formula_structural   Ca(GeRu)2
_chemical_formula_sum   'Ca1 Ge2 Ru2'
_cell_volume   92.51235395
_cell_formula_units_Z   1
loop_
 _symmetry_equiv_pos_site_id
 _symmetry_equiv_pos_as_xyz
  1  'x, y, z'
loop_
 _atom_site_type_symbol
 _atom_site_label
 _atom_site_symmetry_multiplicity
 _atom_site_fract_x
 _atom_site_fract_y
 _atom_site_fract_z
 _atom_site_occupancy
  Ca  Ca1  1  0.000000  0.000000  0.000000  1.0
  Ge  Ge2  1  0.367262  0.367262  0.734524  1.0
  Ge  Ge3  1  0.632738  0.632738  0.265476  1.0
  Ru  Ru4  1  0.250000  0.750000  0.500000  1.0
  Ru  Ru5  1  0.750000  0.250000  0.500000  1.0
