# generated using pymatgen
data_MgCuO2
_symmetry_space_group_name_H-M   'P 1'
_cell_length_a   4.04438575
_cell_length_b   5.61254770
_cell_length_c   4.04438575
_cell_angle_alpha   68.88148138
_cell_angle_beta   90.00000000
_cell_angle_gamma   111.11851862
_symmetry_Int_Tables_number   1
_chemical_formula_structural   MgCuO2
_chemical_formula_sum   'Mg2 Cu2 O4'
_cell_volume   78.99319155
_cell_formula_units_Z   2
loop_
 _symmetry_equiv_pos_site_id
 _symmetry_equiv_pos_as_xyz
  1  'x, y, z'
loop_
 _atom_site_type_symbol
 _atom_site_label
 _atom_site_symmetry_multiplicity
 _atom_site_fract_x
 _atom_site_fract_y
 _atom_site_fract_z
 _atom_site_occupancy
  Mg  Mg1  1  0.250000  0.500000  0.250000  1.0
  Mg  Mg2  1  0.500000  0.000000  0.500000  1.0
  Cu  Cu3  1  0.000000  0.000000  0.000000  1.0
  Cu  Cu4  1  0.750000  0.500000  0.750000  1.0
  O  O5  1  0.731852  0.463705  0.268148  1.0
  O  O6  1  0.268148  0.536295  0.731852  1.0
  O  O7  1  0.481852  0.963705  0.018148  1.0
  O  O8  1  0.018148  0.036295  0.481852  1.0
