# generated using pymatgen
data_ZrCuSi2
_symmetry_space_group_name_H-M   'P 1'
_cell_length_a   3.70188943
_cell_length_b   3.70188943
_cell_length_c   9.14466094
_cell_angle_alpha   90.00000000
_cell_angle_beta   90.00000000
_cell_angle_gamma   90.00000000
_symmetry_Int_Tables_number   1
_chemical_formula_structural   ZrCuSi2
_chemical_formula_sum   'Zr2 Cu2 Si4'
_cell_volume   125.31829957
_cell_formula_units_Z   2
loop_
 _symmetry_equiv_pos_site_id
 _symmetry_equiv_pos_as_xyz
  1  'x, y, z'
loop_
 _atom_site_type_symbol
 _atom_site_label
 _atom_site_symmetry_multiplicity
 _atom_site_fract_x
 _atom_site_fract_y
 _atom_site_fract_z
 _atom_site_occupancy
  Zr  Zr1  1  0.250000  0.250000  0.265918  1.0
  Zr  Zr2  1  0.750000  0.750000  0.734082  1.0
  Cu  Cu3  1  0.750000  0.250000  0.000000  1.0
  Cu  Cu4  1  0.250000  0.750000  0.000000  1.0
  Si  Si5  1  0.750000  0.750000  0.170363  1.0
  Si  Si6  1  0.250000  0.250000  0.829637  1.0
  Si  Si7  1  0.250000  0.750000  0.500000  1.0
  Si  Si8  1  0.750000  0.250000  0.500000  1.0
