# generated using pymatgen
data_BaCdSb2
_symmetry_space_group_name_H-M   'P 1'
_cell_length_a   4.61334748
_cell_length_b   4.61334748
_cell_length_c   12.83283711
_cell_angle_alpha   100.35506801
_cell_angle_beta   100.35506800
_cell_angle_gamma   89.99999997
_symmetry_Int_Tables_number   1
_chemical_formula_structural   BaCdSb2
_chemical_formula_sum   'Ba2 Cd2 Sb4'
_cell_volume   264.14926124
_cell_formula_units_Z   2
loop_
 _symmetry_equiv_pos_site_id
 _symmetry_equiv_pos_as_xyz
  1  'x, y, z'
loop_
 _atom_site_type_symbol
 _atom_site_label
 _atom_site_symmetry_multiplicity
 _atom_site_fract_x
 _atom_site_fract_y
 _atom_site_fract_z
 _atom_site_occupancy
  Ba  Ba1  1  0.887766  0.887766  0.775531  1.0
  Ba  Ba2  1  0.112234  0.112234  0.224469  1.0
  Cd  Cd3  1  0.750000  0.250000  0.500000  1.0
  Cd  Cd4  1  0.250000  0.750000  0.500000  1.0
  Sb  Sb5  1  0.674367  0.674367  0.348734  1.0
  Sb  Sb6  1  0.325633  0.325633  0.651266  1.0
  Sb  Sb7  1  0.500000  0.000000  0.000000  1.0
  Sb  Sb8  1  0.000000  0.500000  0.000000  1.0
