# generated using pymatgen
data_Fe8N3
_symmetry_space_group_name_H-M   'P 1'
_cell_length_a   4.68417109
_cell_length_b   18.73329975
_cell_length_c   10.31023497
_cell_angle_alpha   24.69066366
_cell_angle_beta   117.03611100
_cell_angle_gamma   120.00635400
_symmetry_Int_Tables_number   1
_chemical_formula_structural   Fe8N3
_chemical_formula_sum   'Fe24 N9'
_cell_volume   327.26730644
_cell_formula_units_Z   3
loop_
 _symmetry_equiv_pos_site_id
 _symmetry_equiv_pos_as_xyz
  1  'x, y, z'
loop_
 _atom_site_type_symbol
 _atom_site_label
 _atom_site_symmetry_multiplicity
 _atom_site_fract_x
 _atom_site_fract_y
 _atom_site_fract_z
 _atom_site_occupancy
  Fe  Fe1  1  0.005359  0.915613  0.501776  1.0
  Fe  Fe2  1  0.998598  0.666382  0.499896  1.0
  Fe  Fe3  1  0.334031  0.834669  0.502716  1.0
  Fe  Fe4  1  0.997688  0.831160  0.998748  1.0
  Fe  Fe5  1  0.999432  0.419498  0.497596  1.0
  Fe  Fe6  1  0.324450  0.579916  0.501233  1.0
  Fe  Fe7  1  0.666901  0.749525  0.502191  1.0
  Fe  Fe8  1  0.328808  0.748904  0.002594  1.0
  Fe  Fe9  1  0.666711  0.916291  0.000072  1.0
  Fe  Fe10  1  0.999161  0.580792  0.002145  1.0
  Fe  Fe11  1  0.996839  0.169200  0.497740  1.0
  Fe  Fe12  1  0.328296  0.332932  0.497863  1.0
  Fe  Fe13  1  0.671987  0.501497  0.497397  1.0
  Fe  Fe14  1  0.327740  0.500295  0.001105  1.0
  Fe  Fe15  1  0.995308  0.330520  0.005131  1.0
  Fe  Fe16  1  0.673755  0.667095  0.002408  1.0
  Fe  Fe17  1  0.337049  0.085639  0.494902  1.0
  Fe  Fe18  1  0.675637  0.251389  0.498912  1.0
  Fe  Fe19  1  0.333577  0.247027  0.000992  1.0
  Fe  Fe20  1  0.010067  0.087383  0.997277  1.0
  Fe  Fe21  1  0.675431  0.416930  0.002283  1.0
  Fe  Fe22  1  0.656522  0.998020  0.499012  1.0
  Fe  Fe23  1  0.335590  0.001725  0.997790  1.0
  Fe  Fe24  1  0.660645  0.167391  0.998216  1.0
  N  N25  1  0.007355  0.878674  0.250007  1.0
  N  N26  1  0.660674  0.958328  0.749645  1.0
  N  N27  1  0.326081  0.788040  0.250007  1.0
  N  N28  1  0.668040  0.708099  0.751009  1.0
  N  N29  1  0.332665  0.541332  0.250000  1.0
  N  N30  1  0.671929  0.457975  0.750350  1.0
  N  N31  1  0.340289  0.295148  0.249997  1.0
  N  N32  1  0.993671  0.121836  0.249998  1.0
  N  N33  1  0.666377  0.209108  0.748991  1.0
