# generated using pymatgen
data_Ba4Cu3PbO9
_symmetry_space_group_name_H-M   'P 1'
_cell_length_a   8.19284521
_cell_length_b   8.19284521
_cell_length_c   8.19284521
_cell_angle_alpha   90.00000000
_cell_angle_beta   90.00000000
_cell_angle_gamma   90.00000000
_symmetry_Int_Tables_number   1
_chemical_formula_structural   Ba4Cu3PbO9
_chemical_formula_sum   'Ba8 Cu6 Pb2 O18'
_cell_volume   549.92599469
_cell_formula_units_Z   2
loop_
 _symmetry_equiv_pos_site_id
 _symmetry_equiv_pos_as_xyz
  1  'x, y, z'
loop_
 _atom_site_type_symbol
 _atom_site_label
 _atom_site_symmetry_multiplicity
 _atom_site_fract_x
 _atom_site_fract_y
 _atom_site_fract_z
 _atom_site_occupancy
  Ba  Ba1  1  0.250000  0.250000  0.250000  1.0
  Ba  Ba2  1  0.750000  0.750000  0.250000  1.0
  Ba  Ba3  1  0.750000  0.250000  0.750000  1.0
  Ba  Ba4  1  0.250000  0.750000  0.750000  1.0
  Ba  Ba5  1  0.250000  0.750000  0.250000  1.0
  Ba  Ba6  1  0.750000  0.250000  0.250000  1.0
  Ba  Ba7  1  0.250000  0.250000  0.750000  1.0
  Ba  Ba8  1  0.750000  0.750000  0.750000  1.0
  Cu  Cu9  1  0.500000  0.000000  0.500000  1.0
  Cu  Cu10  1  0.500000  0.000000  0.000000  1.0
  Cu  Cu11  1  0.000000  0.500000  0.000000  1.0
  Cu  Cu12  1  0.000000  0.000000  0.500000  1.0
  Cu  Cu13  1  0.500000  0.500000  0.000000  1.0
  Cu  Cu14  1  0.000000  0.500000  0.500000  1.0
  Pb  Pb15  1  0.500000  0.500000  0.500000  1.0
  Pb  Pb16  1  0.000000  0.000000  0.000000  1.0
  O  O17  1  0.000000  0.500000  0.250000  1.0
  O  O18  1  0.500000  0.500000  0.228672  1.0
  O  O19  1  0.228672  0.500000  0.500000  1.0
  O  O20  1  0.500000  0.750000  0.000000  1.0
  O  O21  1  0.250000  0.000000  0.500000  1.0
  O  O22  1  0.750000  0.000000  0.500000  1.0
  O  O23  1  0.500000  0.250000  0.000000  1.0
  O  O24  1  0.000000  0.000000  0.271328  1.0
  O  O25  1  0.000000  0.000000  0.728672  1.0
  O  O26  1  0.000000  0.271328  0.000000  1.0
  O  O27  1  0.500000  0.771328  0.500000  1.0
  O  O28  1  0.271328  0.000000  0.000000  1.0
  O  O29  1  0.728672  0.000000  0.000000  1.0
  O  O30  1  0.500000  0.228672  0.500000  1.0
  O  O31  1  0.000000  0.500000  0.750000  1.0
  O  O32  1  0.500000  0.500000  0.771328  1.0
  O  O33  1  0.771328  0.500000  0.500000  1.0
  O  O34  1  0.000000  0.728672  0.000000  1.0
