# generated using pymatgen
data_La(FeSb3)4
_symmetry_space_group_name_H-M   'P 1'
_cell_length_a   7.95607456
_cell_length_b   7.95607456
_cell_length_c   7.95607456
_cell_angle_alpha   109.47122060
_cell_angle_beta   109.47122061
_cell_angle_gamma   109.47122068
_symmetry_Int_Tables_number   1
_chemical_formula_structural   La(FeSb3)4
_chemical_formula_sum   'La1 Fe4 Sb12'
_cell_volume   387.68111214
_cell_formula_units_Z   1
loop_
 _symmetry_equiv_pos_site_id
 _symmetry_equiv_pos_as_xyz
  1  'x, y, z'
loop_
 _atom_site_type_symbol
 _atom_site_label
 _atom_site_symmetry_multiplicity
 _atom_site_fract_x
 _atom_site_fract_y
 _atom_site_fract_z
 _atom_site_occupancy
  La  La1  1  0.000000  0.000000  0.000000  1.0
  Fe  Fe2  1  0.500000  0.500000  0.500000  1.0
  Fe  Fe3  1  0.000000  0.500000  0.000000  1.0
  Fe  Fe4  1  0.000000  0.000000  0.500000  1.0
  Fe  Fe5  1  0.500000  0.000000  0.000000  1.0
  Sb  Sb6  1  0.335019  0.172013  0.836994  1.0
  Sb  Sb7  1  0.498026  0.163006  0.335019  1.0
  Sb  Sb8  1  0.163006  0.664981  0.827987  1.0
  Sb  Sb9  1  0.836994  0.664981  0.501974  1.0
  Sb  Sb10  1  0.664981  0.501974  0.836994  1.0
  Sb  Sb11  1  0.664981  0.827987  0.163006  1.0
  Sb  Sb12  1  0.836994  0.335019  0.172013  1.0
  Sb  Sb13  1  0.172013  0.836994  0.335019  1.0
  Sb  Sb14  1  0.335019  0.498026  0.163006  1.0
  Sb  Sb15  1  0.163006  0.335019  0.498026  1.0
  Sb  Sb16  1  0.827987  0.163006  0.664981  1.0
  Sb  Sb17  1  0.501974  0.836994  0.664981  1.0
