# generated using pymatgen
data_VBO3
_symmetry_space_group_name_H-M   'P 1'
_cell_length_a   5.63581858
_cell_length_b   5.63581858
_cell_length_c   5.63581859
_cell_angle_alpha   49.13855248
_cell_angle_beta   49.13855249
_cell_angle_gamma   49.13855244
_symmetry_Int_Tables_number   1
_chemical_formula_structural   VBO3
_chemical_formula_sum   'V2 B2 O6'
_cell_volume   94.04100978
_cell_formula_units_Z   2
loop_
 _symmetry_equiv_pos_site_id
 _symmetry_equiv_pos_as_xyz
  1  'x, y, z'
loop_
 _atom_site_type_symbol
 _atom_site_label
 _atom_site_symmetry_multiplicity
 _atom_site_fract_x
 _atom_site_fract_y
 _atom_site_fract_z
 _atom_site_occupancy
  V  V1  1  0.500000  0.500000  0.500000  1.0
  V  V2  1  0.000000  0.000000  0.000000  1.0
  B  B3  1  0.750000  0.750000  0.750000  1.0
  B  B4  1  0.250000  0.250000  0.250000  1.0
  O  O5  1  0.454010  0.045990  0.750000  1.0
  O  O6  1  0.750000  0.454010  0.045990  1.0
  O  O7  1  0.954010  0.250000  0.545990  1.0
  O  O8  1  0.545990  0.954010  0.250000  1.0
  O  O9  1  0.250000  0.545990  0.954010  1.0
  O  O10  1  0.045990  0.750000  0.454010  1.0
