# generated using pymatgen
data_VFeO4
_symmetry_space_group_name_H-M   'P 1'
_cell_length_a   5.09648635
_cell_length_b   5.09648635
_cell_length_c   6.25164842
_cell_angle_alpha   90.00000000
_cell_angle_beta   90.00000000
_cell_angle_gamma   112.09375672
_symmetry_Int_Tables_number   1
_chemical_formula_structural   VFeO4
_chemical_formula_sum   'V2 Fe2 O8'
_cell_volume   150.45767069
_cell_formula_units_Z   2
loop_
 _symmetry_equiv_pos_site_id
 _symmetry_equiv_pos_as_xyz
  1  'x, y, z'
loop_
 _atom_site_type_symbol
 _atom_site_label
 _atom_site_symmetry_multiplicity
 _atom_site_fract_x
 _atom_site_fract_y
 _atom_site_fract_z
 _atom_site_occupancy
  V  V1  1  0.644401  0.355598  0.250000  1.0
  V  V2  1  0.355598  0.644401  0.750000  1.0
  Fe  Fe3  1  0.000000  0.000000  0.500001  1.0
  Fe  Fe4  1  0.000000  0.000000  0.000000  1.0
  O  O5  1  0.739384  0.788471  0.750000  1.0
  O  O6  1  0.260615  0.211530  0.250000  1.0
  O  O7  1  0.788472  0.739385  0.250000  1.0
  O  O8  1  0.211529  0.260616  0.750000  1.0
  O  O9  1  0.235259  0.764744  0.966267  1.0
  O  O10  1  0.764743  0.235257  0.466268  1.0
  O  O11  1  0.235259  0.764744  0.533732  1.0
  O  O12  1  0.764743  0.235257  0.033733  1.0
