# generated using pymatgen
data_LiP
_symmetry_space_group_name_H-M   'P 1'
_cell_length_a   4.97038519
_cell_length_b   5.59387161
_cell_length_c   9.06941805
_cell_angle_alpha   94.78717684
_cell_angle_beta   90.00000000
_cell_angle_gamma   90.00000000
_symmetry_Int_Tables_number   1
_chemical_formula_structural   LiP
_chemical_formula_sum   'Li8 P8'
_cell_volume   251.28369162
_cell_formula_units_Z   8
loop_
 _symmetry_equiv_pos_site_id
 _symmetry_equiv_pos_as_xyz
  1  'x, y, z'
loop_
 _atom_site_type_symbol
 _atom_site_label
 _atom_site_symmetry_multiplicity
 _atom_site_fract_x
 _atom_site_fract_y
 _atom_site_fract_z
 _atom_site_occupancy
  Li  Li1  1  0.388247  0.112292  0.329300  1.0
  Li  Li2  1  0.888247  0.387708  0.170700  1.0
  Li  Li3  1  0.611753  0.887708  0.670700  1.0
  Li  Li4  1  0.111753  0.612292  0.829300  1.0
  Li  Li5  1  0.658316  0.804018  0.029786  1.0
  Li  Li6  1  0.158316  0.695982  0.470214  1.0
  Li  Li7  1  0.341684  0.195982  0.970214  1.0
  Li  Li8  1  0.841684  0.304018  0.529786  1.0
  P  P9  1  0.894904  0.976272  0.292916  1.0
  P  P10  1  0.394904  0.523728  0.207084  1.0
  P  P11  1  0.105096  0.023728  0.707084  1.0
  P  P12  1  0.605096  0.476272  0.792916  1.0
  P  P13  1  0.156027  0.808560  0.111742  1.0
  P  P14  1  0.656027  0.691440  0.388258  1.0
  P  P15  1  0.843973  0.191440  0.888258  1.0
  P  P16  1  0.343973  0.308560  0.611742  1.0
