# generated using pymatgen
data_MnCoGe
_symmetry_space_group_name_H-M   'P 1'
_cell_length_a   3.79894280
_cell_length_b   5.81180851
_cell_length_c   7.05700400
_cell_angle_alpha   90.00000000
_cell_angle_beta   90.00000000
_cell_angle_gamma   90.00000000
_symmetry_Int_Tables_number   1
_chemical_formula_structural   MnCoGe
_chemical_formula_sum   'Mn4 Co4 Ge4'
_cell_volume   155.80967247
_cell_formula_units_Z   4
loop_
 _symmetry_equiv_pos_site_id
 _symmetry_equiv_pos_as_xyz
  1  'x, y, z'
loop_
 _atom_site_type_symbol
 _atom_site_label
 _atom_site_symmetry_multiplicity
 _atom_site_fract_x
 _atom_site_fract_y
 _atom_site_fract_z
 _atom_site_occupancy
  Mn  Mn1  1  0.750000  0.471505  0.695084  1.0
  Mn  Mn2  1  0.250000  0.528495  0.304916  1.0
  Mn  Mn3  1  0.250000  0.028495  0.195084  1.0
  Mn  Mn4  1  0.750000  0.971505  0.804916  1.0
  Co  Co5  1  0.750000  0.840487  0.438311  1.0
  Co  Co6  1  0.750000  0.340487  0.061689  1.0
  Co  Co7  1  0.250000  0.159513  0.561689  1.0
  Co  Co8  1  0.250000  0.659513  0.938311  1.0
  Ge  Ge9  1  0.750000  0.241976  0.383128  1.0
  Ge  Ge10  1  0.250000  0.758024  0.616872  1.0
  Ge  Ge11  1  0.750000  0.741976  0.116872  1.0
  Ge  Ge12  1  0.250000  0.258024  0.883128  1.0
