# generated using pymatgen
data_SiPt2
_symmetry_space_group_name_H-M   'P 1'
_cell_length_a   6.54693956
_cell_length_b   6.54693993
_cell_length_c   3.61444413
_cell_angle_alpha   90.00000000
_cell_angle_beta   90.00000000
_cell_angle_gamma   120.00000316
_symmetry_Int_Tables_number   1
_chemical_formula_structural   SiPt2
_chemical_formula_sum   'Si3 Pt6'
_cell_volume   134.16796163
_cell_formula_units_Z   3
loop_
 _symmetry_equiv_pos_site_id
 _symmetry_equiv_pos_as_xyz
  1  'x, y, z'
loop_
 _atom_site_type_symbol
 _atom_site_label
 _atom_site_symmetry_multiplicity
 _atom_site_fract_x
 _atom_site_fract_y
 _atom_site_fract_z
 _atom_site_occupancy
  Si  Si1  1  0.666667  0.333333  0.000000  1.0
  Si  Si2  1  0.333333  0.666667  0.000000  1.0
  Si  Si3  1  0.000000  0.000000  0.500000  1.0
  Pt  Pt4  1  0.619419  0.000000  0.500000  1.0
  Pt  Pt5  1  0.380581  0.380581  0.500000  1.0
  Pt  Pt6  1  0.000000  0.619419  0.500000  1.0
  Pt  Pt7  1  0.000000  0.277474  0.000000  1.0
  Pt  Pt8  1  0.722526  0.722526  0.000000  1.0
  Pt  Pt9  1  0.277474  0.000000  0.000000  1.0
