# generated using pymatgen
data_RbOsO3
_symmetry_space_group_name_H-M   'P 1'
_cell_length_a   3.97350359
_cell_length_b   3.97368882
_cell_length_c   3.97509715
_cell_angle_alpha   89.99929930
_cell_angle_beta   89.99927362
_cell_angle_gamma   90.00005306
_symmetry_Int_Tables_number   1
_chemical_formula_structural   RbOsO3
_chemical_formula_sum   'Rb1 Os1 O3'
_cell_volume   62.76466443
_cell_formula_units_Z   1
loop_
 _symmetry_equiv_pos_site_id
 _symmetry_equiv_pos_as_xyz
  1  'x, y, z'
loop_
 _atom_site_type_symbol
 _atom_site_label
 _atom_site_symmetry_multiplicity
 _atom_site_fract_x
 _atom_site_fract_y
 _atom_site_fract_z
 _atom_site_occupancy
  Rb  Rb1  1  0.000142  0.011345  0.002299  1.0
  Os  Os2  1  0.499975  0.512173  0.502170  1.0
  O  O3  1  0.000016  0.512855  0.502667  1.0
  O  O4  1  0.499542  0.012326  0.500948  1.0
  O  O5  1  0.500324  0.511298  0.001915  1.0
