# generated using pymatgen
data_Nb4FeSi
_symmetry_space_group_name_H-M   'P 1'
_cell_length_a   5.09623195
_cell_length_b   6.19482660
_cell_length_c   6.19482660
_cell_angle_alpha   90.00000000
_cell_angle_beta   90.00000000
_cell_angle_gamma   90.00000000
_symmetry_Int_Tables_number   1
_chemical_formula_structural   Nb4FeSi
_chemical_formula_sum   'Nb8 Fe2 Si2'
_cell_volume   195.57236846
_cell_formula_units_Z   2
loop_
 _symmetry_equiv_pos_site_id
 _symmetry_equiv_pos_as_xyz
  1  'x, y, z'
loop_
 _atom_site_type_symbol
 _atom_site_label
 _atom_site_symmetry_multiplicity
 _atom_site_fract_x
 _atom_site_fract_y
 _atom_site_fract_z
 _atom_site_occupancy
  Nb  Nb1  1  0.000000  0.331538  0.152864  1.0
  Nb  Nb2  1  0.000000  0.847136  0.331538  1.0
  Nb  Nb3  1  0.000000  0.668462  0.847136  1.0
  Nb  Nb4  1  0.500000  0.847136  0.668462  1.0
  Nb  Nb5  1  0.500000  0.668462  0.152864  1.0
  Nb  Nb6  1  0.500000  0.331538  0.847136  1.0
  Nb  Nb7  1  0.000000  0.152864  0.668462  1.0
  Nb  Nb8  1  0.500000  0.152864  0.331538  1.0
  Fe  Fe9  1  0.750000  0.000000  0.000000  1.0
  Fe  Fe10  1  0.250000  0.000000  0.000000  1.0
  Si  Si11  1  0.750000  0.500000  0.500000  1.0
  Si  Si12  1  0.250000  0.500000  0.500000  1.0
