# generated using pymatgen
data_NbRu3C
_symmetry_space_group_name_H-M   'P 1'
_cell_length_a   4.06513835
_cell_length_b   4.06513835
_cell_length_c   4.06513835
_cell_angle_alpha   90.00000000
_cell_angle_beta   90.00000000
_cell_angle_gamma   90.00000000
_symmetry_Int_Tables_number   1
_chemical_formula_structural   NbRu3C
_chemical_formula_sum   'Nb1 Ru3 C1'
_cell_volume   67.17783324
_cell_formula_units_Z   1
loop_
 _symmetry_equiv_pos_site_id
 _symmetry_equiv_pos_as_xyz
  1  'x, y, z'
loop_
 _atom_site_type_symbol
 _atom_site_label
 _atom_site_symmetry_multiplicity
 _atom_site_fract_x
 _atom_site_fract_y
 _atom_site_fract_z
 _atom_site_occupancy
  Nb  Nb1  1  0.000000  0.000000  0.000000  1.0
  Ru  Ru2  1  0.000000  0.500000  0.500000  1.0
  Ru  Ru3  1  0.500000  0.000000  0.500000  1.0
  Ru  Ru4  1  0.500000  0.500000  0.000000  1.0
  C  C5  1  0.500000  0.500000  0.500000  1.0
