# generated using pymatgen
data_Si
_symmetry_space_group_name_H-M   'P 1'
_cell_length_a   3.63069298
_cell_length_b   3.63069298
_cell_length_c   5.27127978
_cell_angle_alpha   108.39265664
_cell_angle_beta   108.39265664
_cell_angle_gamma   94.80662386
_symmetry_Int_Tables_number   1
_chemical_formula_structural   Si
_chemical_formula_sum   Si4
_cell_volume   61.25699539
_cell_formula_units_Z   4
loop_
 _symmetry_equiv_pos_site_id
 _symmetry_equiv_pos_as_xyz
  1  'x, y, z'
loop_
 _atom_site_type_symbol
 _atom_site_label
 _atom_site_symmetry_multiplicity
 _atom_site_fract_x
 _atom_site_fract_y
 _atom_site_fract_z
 _atom_site_occupancy
  Si  Si1  1  0.728640  0.271360  0.000000  1.0
  Si  Si2  1  0.271360  0.728640  0.000000  1.0
  Si  Si3  1  0.778683  0.778683  0.557367  1.0
  Si  Si4  1  0.221317  0.221317  0.442633  1.0
