# generated using pymatgen
data_LiYF4
_symmetry_space_group_name_H-M   'P 1'
_cell_length_a   5.25390381
_cell_length_b   5.25302983
_cell_length_c   6.57877994
_cell_angle_alpha   113.52648852
_cell_angle_beta   113.53353005
_cell_angle_gamma   90.01033727
_symmetry_Int_Tables_number   1
_chemical_formula_structural   LiYF4
_chemical_formula_sum   'Li2 Y2 F8'
_cell_volume   149.85335813
_cell_formula_units_Z   2
loop_
 _symmetry_equiv_pos_site_id
 _symmetry_equiv_pos_as_xyz
  1  'x, y, z'
loop_
 _atom_site_type_symbol
 _atom_site_label
 _atom_site_symmetry_multiplicity
 _atom_site_fract_x
 _atom_site_fract_y
 _atom_site_fract_z
 _atom_site_occupancy
  Li  Li1  1  0.124974  0.375027  0.250009  1.0
  Li  Li2  1  0.875026  0.624973  0.749991  1.0
  Y  Y3  1  0.375026  0.125015  0.749990  1.0
  Y  Y4  1  0.624974  0.874985  0.250010  1.0
  F  F5  1  0.673854  0.539925  0.912377  1.0
  F  F6  1  0.372607  0.173900  0.412302  1.0
  F  F7  1  0.761445  0.127508  0.087657  1.0
  F  F8  1  0.960232  0.261485  0.587661  1.0
  F  F9  1  0.627393  0.826100  0.587698  1.0
  F  F10  1  0.326146  0.460075  0.087623  1.0
  F  F11  1  0.238555  0.872492  0.912343  1.0
  F  F12  1  0.039768  0.738515  0.412339  1.0
