# generated using pymatgen
data_TiF3
_symmetry_space_group_name_H-M   'P 1'
_cell_length_a   5.58819833
_cell_length_b   5.58819834
_cell_length_c   5.58819834
_cell_angle_alpha   59.96747865
_cell_angle_beta   59.96747866
_cell_angle_gamma   59.96747861
_symmetry_Int_Tables_number   1
_chemical_formula_structural   TiF3
_chemical_formula_sum   'Ti2 F6'
_cell_volume   123.30481355
_cell_formula_units_Z   2
loop_
 _symmetry_equiv_pos_site_id
 _symmetry_equiv_pos_as_xyz
  1  'x, y, z'
loop_
 _atom_site_type_symbol
 _atom_site_label
 _atom_site_symmetry_multiplicity
 _atom_site_fract_x
 _atom_site_fract_y
 _atom_site_fract_z
 _atom_site_occupancy
  Ti  Ti1  1  0.500000  0.500000  0.500000  1.0
  Ti  Ti2  1  0.000000  0.000000  0.000000  1.0
  F  F3  1  0.253225  0.750000  0.246775  1.0
  F  F4  1  0.750000  0.246775  0.253225  1.0
  F  F5  1  0.753225  0.746775  0.250000  1.0
  F  F6  1  0.250000  0.753225  0.746775  1.0
  F  F7  1  0.746775  0.250000  0.753225  1.0
  F  F8  1  0.246775  0.253225  0.750000  1.0
