# generated using pymatgen
data_Co2P2O7
_symmetry_space_group_name_H-M   'P 1'
_cell_length_a   4.54791339
_cell_length_b   5.33582336
_cell_length_c   5.33582336
_cell_angle_alpha   103.93707477
_cell_angle_beta   98.10080184
_cell_angle_gamma   98.10080180
_symmetry_Int_Tables_number   1
_chemical_formula_structural   Co2P2O7
_chemical_formula_sum   'Co2 P2 O7'
_cell_volume   122.34042516
_cell_formula_units_Z   1
loop_
 _symmetry_equiv_pos_site_id
 _symmetry_equiv_pos_as_xyz
  1  'x, y, z'
loop_
 _atom_site_type_symbol
 _atom_site_label
 _atom_site_symmetry_multiplicity
 _atom_site_fract_x
 _atom_site_fract_y
 _atom_site_fract_z
 _atom_site_occupancy
  Co  Co1  1  0.500000  0.311113  0.688887  1.0
  Co  Co2  1  0.500000  0.688887  0.311113  1.0
  P  P3  1  0.907143  0.217863  0.217863  1.0
  P  P4  1  0.092857  0.782137  0.782137  1.0
  O  O5  1  0.000000  0.000000  0.000000  1.0
  O  O6  1  0.277713  0.621736  0.925744  1.0
  O  O7  1  0.722287  0.074256  0.378264  1.0
  O  O8  1  0.722287  0.378264  0.074256  1.0
  O  O9  1  0.787701  0.621877  0.621877  1.0
  O  O10  1  0.212299  0.378123  0.378123  1.0
  O  O11  1  0.277713  0.925744  0.621736  1.0
