# generated using pymatgen
data_K3Co(NO2)6
_symmetry_space_group_name_H-M   'P 1'
_cell_length_a   7.55750559
_cell_length_b   7.55750457
_cell_length_c   7.55750604
_cell_angle_alpha   59.99991450
_cell_angle_beta   59.99990131
_cell_angle_gamma   59.99990567
_symmetry_Int_Tables_number   1
_chemical_formula_structural   K3Co(NO2)6
_chemical_formula_sum   'K3 Co1 N6 O12'
_cell_volume   305.22456714
_cell_formula_units_Z   1
loop_
 _symmetry_equiv_pos_site_id
 _symmetry_equiv_pos_as_xyz
  1  'x, y, z'
loop_
 _atom_site_type_symbol
 _atom_site_label
 _atom_site_symmetry_multiplicity
 _atom_site_fract_x
 _atom_site_fract_y
 _atom_site_fract_z
 _atom_site_occupancy
  K  K1  1  0.749999  0.750000  0.750000  1.0
  K  K2  1  0.250001  0.250000  0.250000  1.0
  K  K3  1  0.500000  0.500000  0.500000  1.0
  Co  Co4  1  0.000000  0.000000  0.000000  1.0
  N  N5  1  0.184017  0.815983  0.815982  1.0
  N  N6  1  0.184017  0.184017  0.815983  1.0
  N  N7  1  0.815983  0.184017  0.184017  1.0
  N  N8  1  0.815983  0.184018  0.815982  1.0
  N  N9  1  0.184017  0.815982  0.184018  1.0
  N  N10  1  0.815984  0.815982  0.184016  1.0
  O  O11  1  0.655965  0.858373  0.344035  1.0
  O  O12  1  0.344034  0.655966  0.858373  1.0
  O  O13  1  0.344035  0.141627  0.655965  1.0
  O  O14  1  0.141627  0.655966  0.344034  1.0
  O  O15  1  0.858374  0.655966  0.141626  1.0
  O  O16  1  0.344034  0.858374  0.141626  1.0
  O  O17  1  0.655966  0.141626  0.858374  1.0
  O  O18  1  0.141626  0.858374  0.655966  1.0
  O  O19  1  0.858373  0.344034  0.655966  1.0
  O  O20  1  0.858374  0.141626  0.344035  1.0
  O  O21  1  0.655966  0.344035  0.141627  1.0
  O  O22  1  0.141626  0.344034  0.858374  1.0
