# generated using pymatgen
data_Be2W
_symmetry_space_group_name_H-M   'P 1'
_cell_length_a   4.46037918
_cell_length_b   4.46037918
_cell_length_c   7.33361712
_cell_angle_alpha   90.00000000
_cell_angle_beta   90.00000000
_cell_angle_gamma   119.99817531
_symmetry_Int_Tables_number   1
_chemical_formula_structural   Be2W
_chemical_formula_sum   'Be8 W4'
_cell_volume   126.35732079
_cell_formula_units_Z   4
loop_
 _symmetry_equiv_pos_site_id
 _symmetry_equiv_pos_as_xyz
  1  'x, y, z'
loop_
 _atom_site_type_symbol
 _atom_site_label
 _atom_site_symmetry_multiplicity
 _atom_site_fract_x
 _atom_site_fract_y
 _atom_site_fract_z
 _atom_site_occupancy
  Be  Be1  1  0.000000  0.000000  0.500000  1.0
  Be  Be2  1  0.000000  0.000000  0.000000  1.0
  Be  Be3  1  0.169851  0.339704  0.750000  1.0
  Be  Be4  1  0.169855  0.830145  0.750000  1.0
  Be  Be5  1  0.660296  0.830149  0.750000  1.0
  Be  Be6  1  0.830149  0.660296  0.250000  1.0
  Be  Be7  1  0.830145  0.169855  0.250000  1.0
  Be  Be8  1  0.339704  0.169851  0.250000  1.0
  W  W9  1  0.666664  0.333336  0.562328  1.0
  W  W10  1  0.333336  0.666664  0.437672  1.0
  W  W11  1  0.333336  0.666664  0.062328  1.0
  W  W12  1  0.666664  0.333336  0.937672  1.0
