# generated using pymatgen
data_Nd(CoSi)2
_symmetry_space_group_name_H-M   'P 1'
_cell_length_a   3.94128819
_cell_length_b   3.94128819
_cell_length_c   5.72338136
_cell_angle_alpha   110.13996544
_cell_angle_beta   110.13996550
_cell_angle_gamma   90.00000007
_symmetry_Int_Tables_number   1
_chemical_formula_structural   Nd(CoSi)2
_chemical_formula_sum   'Nd1 Co2 Si2'
_cell_volume   77.65356630
_cell_formula_units_Z   1
loop_
 _symmetry_equiv_pos_site_id
 _symmetry_equiv_pos_as_xyz
  1  'x, y, z'
loop_
 _atom_site_type_symbol
 _atom_site_label
 _atom_site_symmetry_multiplicity
 _atom_site_fract_x
 _atom_site_fract_y
 _atom_site_fract_z
 _atom_site_occupancy
  Nd  Nd1  1  0.000000  0.000000  0.000000  1.0
  Co  Co2  1  0.250000  0.750000  0.500000  1.0
  Co  Co3  1  0.750000  0.250000  0.500000  1.0
  Si  Si4  1  0.632906  0.632906  0.265811  1.0
  Si  Si5  1  0.367094  0.367094  0.734189  1.0
