# generated using pymatgen
data_LaSi2Pt
_symmetry_space_group_name_H-M   'P 1'
_cell_length_a   4.28708187
_cell_length_b   4.37884852
_cell_length_c   8.74434158
_cell_angle_alpha   104.50010580
_cell_angle_beta   90.00000000
_cell_angle_gamma   90.00000000
_symmetry_Int_Tables_number   1
_chemical_formula_structural   LaSi2Pt
_chemical_formula_sum   'La2 Si4 Pt2'
_cell_volume   158.92425965
_cell_formula_units_Z   2
loop_
 _symmetry_equiv_pos_site_id
 _symmetry_equiv_pos_as_xyz
  1  'x, y, z'
loop_
 _atom_site_type_symbol
 _atom_site_label
 _atom_site_symmetry_multiplicity
 _atom_site_fract_x
 _atom_site_fract_y
 _atom_site_fract_z
 _atom_site_occupancy
  La  La1  1  0.250000  0.893989  0.787978  1.0
  La  La2  1  0.750000  0.106011  0.212022  1.0
  Si  Si3  1  0.250000  0.249220  0.498440  1.0
  Si  Si4  1  0.750000  0.750780  0.501560  1.0
  Si  Si5  1  0.750000  0.463755  0.927508  1.0
  Si  Si6  1  0.250000  0.536245  0.072492  1.0
  Pt  Pt7  1  0.750000  0.319603  0.639206  1.0
  Pt  Pt8  1  0.250000  0.680397  0.360794  1.0
