# generated using pymatgen
data_Sr(MnAs)2
_symmetry_space_group_name_H-M   'P 1'
_cell_length_a   4.07631050
_cell_length_b   4.07631049
_cell_length_c   7.35146691
_cell_angle_alpha   90.00000000
_cell_angle_beta   90.00000000
_cell_angle_gamma   120.00000005
_symmetry_Int_Tables_number   1
_chemical_formula_structural   Sr(MnAs)2
_chemical_formula_sum   'Sr1 Mn2 As2'
_cell_volume   105.78866884
_cell_formula_units_Z   1
loop_
 _symmetry_equiv_pos_site_id
 _symmetry_equiv_pos_as_xyz
  1  'x, y, z'
loop_
 _atom_site_type_symbol
 _atom_site_label
 _atom_site_symmetry_multiplicity
 _atom_site_fract_x
 _atom_site_fract_y
 _atom_site_fract_z
 _atom_site_occupancy
  Sr  Sr1  1  0.000000  0.000000  0.000000  1.0
  Mn  Mn2  1  0.666667  0.333333  0.387683  1.0
  Mn  Mn3  1  0.333333  0.666667  0.612317  1.0
  As  As4  1  0.666667  0.333333  0.717957  1.0
  As  As5  1  0.333333  0.666667  0.282043  1.0
