# generated using pymatgen
data_Cs2Pd3Se4
_symmetry_space_group_name_H-M   'P 1'
_cell_length_a   6.55405661
_cell_length_b   6.55202731
_cell_length_c   8.15787524
_cell_angle_alpha   101.95672547
_cell_angle_beta   101.96753513
_cell_angle_gamma   118.94381250
_symmetry_Int_Tables_number   1
_chemical_formula_structural   Cs2Pd3Se4
_chemical_formula_sum   'Cs2 Pd3 Se4'
_cell_volume   279.88074072
_cell_formula_units_Z   1
loop_
 _symmetry_equiv_pos_site_id
 _symmetry_equiv_pos_as_xyz
  1  'x, y, z'
loop_
 _atom_site_type_symbol
 _atom_site_label
 _atom_site_symmetry_multiplicity
 _atom_site_fract_x
 _atom_site_fract_y
 _atom_site_fract_z
 _atom_site_occupancy
  Cs  Cs1  1  0.848149  0.848149  0.696297  1.0
  Cs  Cs2  1  0.151851  0.151851  0.303703  1.0
  Pd  Pd3  1  0.500000  0.000000  0.000000  1.0
  Pd  Pd4  1  0.000000  0.500000  0.000000  1.0
  Pd  Pd5  1  0.500000  0.500000  0.000000  1.0
  Se  Se6  1  0.440373  0.776366  0.216863  1.0
  Se  Se7  1  0.776490  0.440497  0.216863  1.0
  Se  Se8  1  0.559627  0.223634  0.783137  1.0
  Se  Se9  1  0.223510  0.559503  0.783137  1.0
