# generated using pymatgen
data_CO2
_symmetry_space_group_name_H-M   'P 1'
_cell_length_a   5.16678229
_cell_length_b   5.16678229
_cell_length_c   7.63557966
_cell_angle_alpha   90.00000000
_cell_angle_beta   90.00000000
_cell_angle_gamma   90.00000000
_symmetry_Int_Tables_number   1
_chemical_formula_structural   CO2
_chemical_formula_sum   'C4 O8'
_cell_volume   203.83667993
_cell_formula_units_Z   4
loop_
 _symmetry_equiv_pos_site_id
 _symmetry_equiv_pos_as_xyz
  1  'x, y, z'
loop_
 _atom_site_type_symbol
 _atom_site_label
 _atom_site_symmetry_multiplicity
 _atom_site_fract_x
 _atom_site_fract_y
 _atom_site_fract_z
 _atom_site_occupancy
  C  C1  1  0.499145  0.499145  0.000000  1.0
  C  C2  1  0.000855  0.999145  0.250000  1.0
  C  C3  1  0.999145  0.000855  0.750000  1.0
  C  C4  1  0.500855  0.500855  0.500000  1.0
  O  O5  1  0.161592  0.160011  0.250355  1.0
  O  O6  1  0.339989  0.661592  0.500355  1.0
  O  O7  1  0.660011  0.338408  0.000355  1.0
  O  O8  1  0.661592  0.339989  0.499645  1.0
  O  O9  1  0.338408  0.660011  0.999645  1.0
  O  O10  1  0.838408  0.839989  0.750355  1.0
  O  O11  1  0.160011  0.161592  0.749645  1.0
  O  O12  1  0.839989  0.838408  0.249645  1.0
