# generated using pymatgen
data_CoCu2SnS4
_symmetry_space_group_name_H-M   'P 1'
_cell_length_a   5.41438881
_cell_length_b   5.41439442
_cell_length_c   6.58198934
_cell_angle_alpha   114.27979375
_cell_angle_beta   114.27938347
_cell_angle_gamma   90.00331519
_symmetry_Int_Tables_number   1
_chemical_formula_structural   CoCu2SnS4
_chemical_formula_sum   'Co1 Cu2 Sn1 S4'
_cell_volume   156.97431798
_cell_formula_units_Z   1
loop_
 _symmetry_equiv_pos_site_id
 _symmetry_equiv_pos_as_xyz
  1  'x, y, z'
loop_
 _atom_site_type_symbol
 _atom_site_label
 _atom_site_symmetry_multiplicity
 _atom_site_fract_x
 _atom_site_fract_y
 _atom_site_fract_z
 _atom_site_occupancy
  Co  Co1  1  0.000013  0.000015  0.000027  1.0
  Cu  Cu2  1  0.749994  0.249992  0.499996  1.0
  Cu  Cu3  1  0.249988  0.749990  0.499998  1.0
  Sn  Sn4  1  0.500027  0.500026  0.999970  1.0
  S  S5  1  0.637901  0.099958  0.737911  1.0
  S  S6  1  0.899996  0.899973  0.262108  1.0
  S  S7  1  0.099981  0.637920  0.737914  1.0
  S  S8  1  0.362100  0.362126  0.262075  1.0
