# generated using pymatgen
data_V4GaS8
_symmetry_space_group_name_H-M   'P 1'
_cell_length_a   6.87983518
_cell_length_b   6.87983518
_cell_length_c   6.87983518
_cell_angle_alpha   60.00000000
_cell_angle_beta   60.00000000
_cell_angle_gamma   59.99999997
_symmetry_Int_Tables_number   1
_chemical_formula_structural   V4GaS8
_chemical_formula_sum   'V4 Ga1 S8'
_cell_volume   230.26032007
_cell_formula_units_Z   1
loop_
 _symmetry_equiv_pos_site_id
 _symmetry_equiv_pos_as_xyz
  1  'x, y, z'
loop_
 _atom_site_type_symbol
 _atom_site_label
 _atom_site_symmetry_multiplicity
 _atom_site_fract_x
 _atom_site_fract_y
 _atom_site_fract_z
 _atom_site_occupancy
  V  V1  1  0.605919  0.182244  0.605919  1.0
  V  V2  1  0.182244  0.605919  0.605919  1.0
  V  V3  1  0.605919  0.605919  0.182244  1.0
  V  V4  1  0.605919  0.605919  0.605919  1.0
  Ga  Ga5  1  0.000000  0.000000  0.000000  1.0
  S  S6  1  0.863352  0.409944  0.863352  1.0
  S  S7  1  0.409944  0.863352  0.863352  1.0
  S  S8  1  0.863352  0.863352  0.409944  1.0
  S  S9  1  0.863352  0.863352  0.863352  1.0
  S  S10  1  0.371122  0.886633  0.371122  1.0
  S  S11  1  0.371122  0.371122  0.371122  1.0
  S  S12  1  0.371122  0.371122  0.886633  1.0
  S  S13  1  0.886633  0.371122  0.371122  1.0
