# generated using pymatgen
data_CaSiO3
_symmetry_space_group_name_H-M   'P 1'
_cell_length_a   6.74048139
_cell_length_b   6.78603885
_cell_length_c   9.45676804
_cell_angle_alpha   68.57056005
_cell_angle_beta   86.21411052
_cell_angle_gamma   75.81085080
_symmetry_Int_Tables_number   1
_chemical_formula_structural   CaSiO3
_chemical_formula_sum   'Ca6 Si6 O18'
_cell_volume   390.24259625
_cell_formula_units_Z   6
loop_
 _symmetry_equiv_pos_site_id
 _symmetry_equiv_pos_as_xyz
  1  'x, y, z'
loop_
 _atom_site_type_symbol
 _atom_site_label
 _atom_site_symmetry_multiplicity
 _atom_site_fract_x
 _atom_site_fract_y
 _atom_site_fract_z
 _atom_site_occupancy
  Ca  Ca1  1  0.077778  0.753101  0.662913  1.0
  Ca  Ca2  1  0.922222  0.246899  0.337087  1.0
  Ca  Ca3  1  0.411549  0.110934  0.650809  1.0
  Ca  Ca4  1  0.588451  0.889066  0.349191  1.0
  Ca  Ca5  1  0.236510  0.256440  0.000411  1.0
  Ca  Ca6  1  0.763490  0.743560  0.999589  1.0
  Si  Si7  1  0.961383  0.275588  0.700398  1.0
  Si  Si8  1  0.038617  0.724412  0.299602  1.0
  Si  Si9  1  0.729961  0.243878  0.984043  1.0
  Si  Si10  1  0.270039  0.756122  0.015957  1.0
  Si  Si11  1  0.612897  0.629416  0.705455  1.0
  Si  Si12  1  0.387103  0.370584  0.294545  1.0
  O  O13  1  0.762110  0.480638  0.613863  1.0
  O  O14  1  0.237890  0.519362  0.386137  1.0
  O  O15  1  0.046961  0.128515  0.598326  1.0
  O  O16  1  0.953039  0.871485  0.401674  1.0
  O  O17  1  0.144056  0.370102  0.737323  1.0
  O  O18  1  0.855944  0.629898  0.262677  1.0
  O  O19  1  0.865762  0.132218  0.863500  1.0
  O  O20  1  0.134238  0.867782  0.136500  1.0
  O  O21  1  0.387893  0.933255  0.907308  1.0
  O  O22  1  0.612107  0.066745  0.092692  1.0
  O  O23  1  0.128943  0.659539  0.938778  1.0
  O  O24  1  0.871057  0.340461  0.061222  1.0
  O  O25  1  0.263994  0.216443  0.257657  1.0
  O  O26  1  0.736006  0.783557  0.742343  1.0
  O  O27  1  0.581337  0.215984  0.406206  1.0
  O  O28  1  0.418663  0.784016  0.593794  1.0
  O  O29  1  0.450210  0.553873  0.136211  1.0
  O  O30  1  0.549790  0.446127  0.863789  1.0
