# generated using pymatgen
data_Co3Se4
_symmetry_space_group_name_H-M   'P 1'
_cell_length_a   3.57437161
_cell_length_b   6.16478058
_cell_length_c   6.16955018
_cell_angle_alpha   118.04064662
_cell_angle_beta   106.83870698
_cell_angle_gamma   90.00000002
_symmetry_Int_Tables_number   1
_chemical_formula_structural   Co3Se4
_chemical_formula_sum   'Co3 Se4'
_cell_volume   113.34248477
_cell_formula_units_Z   1
loop_
 _symmetry_equiv_pos_site_id
 _symmetry_equiv_pos_as_xyz
  1  'x, y, z'
loop_
 _atom_site_type_symbol
 _atom_site_label
 _atom_site_symmetry_multiplicity
 _atom_site_fract_x
 _atom_site_fract_y
 _atom_site_fract_z
 _atom_site_occupancy
  Co  Co1  1  0.761223  0.780659  0.522446  1.0
  Co  Co2  1  0.238777  0.219341  0.477554  1.0
  Co  Co3  1  0.500000  0.500000  0.000000  1.0
  Se  Se4  1  0.133824  0.475594  0.267647  1.0
  Se  Se5  1  0.866176  0.524406  0.732353  1.0
  Se  Se6  1  0.622358  0.955513  0.244716  1.0
  Se  Se7  1  0.377642  0.044487  0.755284  1.0
