# generated using pymatgen
data_CuAgO2
_symmetry_space_group_name_H-M   'P 1'
_cell_length_a   3.91010482
_cell_length_b   2.93215540
_cell_length_c   4.51018382
_cell_angle_alpha   109.46494826
_cell_angle_beta   94.16868982
_cell_angle_gamma   108.22320148
_symmetry_Int_Tables_number   1
_chemical_formula_structural   CuAgO2
_chemical_formula_sum   'Cu1 Ag1 O2'
_cell_volume   45.39631647
_cell_formula_units_Z   1
loop_
 _symmetry_equiv_pos_site_id
 _symmetry_equiv_pos_as_xyz
  1  'x, y, z'
loop_
 _atom_site_type_symbol
 _atom_site_label
 _atom_site_symmetry_multiplicity
 _atom_site_fract_x
 _atom_site_fract_y
 _atom_site_fract_z
 _atom_site_occupancy
  Cu  Cu1  1  0.500000  0.000000  0.500000  1.0
  Ag  Ag2  1  0.000000  0.000000  0.000000  1.0
  O  O3  1  0.662929  0.452738  0.283552  1.0
  O  O4  1  0.337071  0.547262  0.716448  1.0
