# generated using pymatgen
data_ErInPd
_symmetry_space_group_name_H-M   'P 1'
_cell_length_a   7.73649527
_cell_length_b   7.73649547
_cell_length_c   3.78429346
_cell_angle_alpha   90.00000000
_cell_angle_beta   90.00000000
_cell_angle_gamma   119.99999912
_symmetry_Int_Tables_number   1
_chemical_formula_structural   ErInPd
_chemical_formula_sum   'Er3 In3 Pd3'
_cell_volume   196.15707761
_cell_formula_units_Z   3
loop_
 _symmetry_equiv_pos_site_id
 _symmetry_equiv_pos_as_xyz
  1  'x, y, z'
loop_
 _atom_site_type_symbol
 _atom_site_label
 _atom_site_symmetry_multiplicity
 _atom_site_fract_x
 _atom_site_fract_y
 _atom_site_fract_z
 _atom_site_occupancy
  Er  Er1  1  0.405679  0.000000  0.500000  1.0
  Er  Er2  1  0.594321  0.594321  0.500000  1.0
  Er  Er3  1  0.000000  0.405679  0.500000  1.0
  In  In4  1  0.261898  0.261898  0.000000  1.0
  In  In5  1  0.738102  0.000000  0.000000  1.0
  In  In6  1  0.000000  0.738102  0.000000  1.0
  Pd  Pd7  1  0.000000  0.000000  0.500000  1.0
  Pd  Pd8  1  0.666667  0.333333  0.000000  1.0
  Pd  Pd9  1  0.333333  0.666667  0.000000  1.0
