# generated using pymatgen
data_CaSn2Ir
_symmetry_space_group_name_H-M   'P 1'
_cell_length_a   4.35009685
_cell_length_b   5.88350530
_cell_length_c   7.66668031
_cell_angle_alpha   90.00000000
_cell_angle_beta   90.00000000
_cell_angle_gamma   111.69624176
_symmetry_Int_Tables_number   1
_chemical_formula_structural   CaSn2Ir
_chemical_formula_sum   'Ca2 Sn4 Ir2'
_cell_volume   182.31879822
_cell_formula_units_Z   2
loop_
 _symmetry_equiv_pos_site_id
 _symmetry_equiv_pos_as_xyz
  1  'x, y, z'
loop_
 _atom_site_type_symbol
 _atom_site_label
 _atom_site_symmetry_multiplicity
 _atom_site_fract_x
 _atom_site_fract_y
 _atom_site_fract_z
 _atom_site_occupancy
  Ca  Ca1  1  0.067772  0.135544  0.750000  1.0
  Ca  Ca2  1  0.932228  0.864456  0.250000  1.0
  Sn  Sn3  1  0.355753  0.711506  0.953460  1.0
  Sn  Sn4  1  0.355753  0.711506  0.546540  1.0
  Sn  Sn5  1  0.644247  0.288494  0.046540  1.0
  Sn  Sn6  1  0.644247  0.288494  0.453460  1.0
  Ir  Ir7  1  0.787726  0.575451  0.750000  1.0
  Ir  Ir8  1  0.212274  0.424549  0.250000  1.0
