# generated using pymatgen
data_K(CoS)2
_symmetry_space_group_name_H-M   'P 1'
_cell_length_a   3.74477953
_cell_length_b   3.74477954
_cell_length_c   6.88948273
_cell_angle_alpha   105.76992223
_cell_angle_beta   105.76992222
_cell_angle_gamma   89.99999990
_symmetry_Int_Tables_number   1
_chemical_formula_structural   K(CoS)2
_chemical_formula_sum   'K1 Co2 S2'
_cell_volume   89.19272009
_cell_formula_units_Z   1
loop_
 _symmetry_equiv_pos_site_id
 _symmetry_equiv_pos_as_xyz
  1  'x, y, z'
loop_
 _atom_site_type_symbol
 _atom_site_label
 _atom_site_symmetry_multiplicity
 _atom_site_fract_x
 _atom_site_fract_y
 _atom_site_fract_z
 _atom_site_occupancy
  K  K1  1  0.000000  0.000000  0.000000  1.0
  Co  Co2  1  0.750000  0.250000  0.500000  1.0
  Co  Co3  1  0.250000  0.750000  0.500000  1.0
  S  S4  1  0.655753  0.655753  0.311506  1.0
  S  S5  1  0.344247  0.344247  0.688494  1.0
