# generated using pymatgen
data_Li2RuO3
_symmetry_space_group_name_H-M   'P 1'
_cell_length_a   5.10566668
_cell_length_b   5.10566684
_cell_length_c   9.97878255
_cell_angle_alpha   94.90841034
_cell_angle_beta   94.90841050
_cell_angle_gamma   119.93244405
_symmetry_Int_Tables_number   1
_chemical_formula_structural   Li2RuO3
_chemical_formula_sum   'Li8 Ru4 O12'
_cell_volume   222.10981917
_cell_formula_units_Z   4
loop_
 _symmetry_equiv_pos_site_id
 _symmetry_equiv_pos_as_xyz
  1  'x, y, z'
loop_
 _atom_site_type_symbol
 _atom_site_label
 _atom_site_symmetry_multiplicity
 _atom_site_fract_x
 _atom_site_fract_y
 _atom_site_fract_z
 _atom_site_occupancy
  Li  Li1  1  0.910949  0.089051  0.750000  1.0
  Li  Li2  1  0.410723  0.589277  0.250000  1.0
  Li  Li3  1  0.250123  0.749877  0.750000  1.0
  Li  Li4  1  0.589277  0.410723  0.750000  1.0
  Li  Li5  1  0.089051  0.910949  0.250000  1.0
  Li  Li6  1  0.749877  0.250123  0.250000  1.0
  Li  Li7  1  0.000000  0.500000  0.000000  1.0
  Li  Li8  1  0.500000  0.000000  0.500000  1.0
  Ru  Ru9  1  0.166384  0.333414  0.500009  1.0
  Ru  Ru10  1  0.666586  0.833616  0.999991  1.0
  Ru  Ru11  1  0.833616  0.666586  0.499991  1.0
  Ru  Ru12  1  0.333414  0.166384  0.000009  1.0
  O  O13  1  0.884013  0.383946  0.619140  1.0
  O  O14  1  0.539470  0.695208  0.617758  1.0
  O  O15  1  0.039411  0.195348  0.117820  1.0
  O  O16  1  0.115987  0.616054  0.380860  1.0
  O  O17  1  0.304792  0.460530  0.882242  1.0
  O  O18  1  0.804652  0.960589  0.382180  1.0
  O  O19  1  0.695208  0.539470  0.117758  1.0
  O  O20  1  0.960589  0.804652  0.882180  1.0
  O  O21  1  0.616054  0.115987  0.880860  1.0
  O  O22  1  0.460530  0.304792  0.382242  1.0
  O  O23  1  0.195348  0.039411  0.617820  1.0
  O  O24  1  0.383946  0.884013  0.119140  1.0
