# generated using pymatgen
data_BaNiO3
_symmetry_space_group_name_H-M   'P 1'
_cell_length_a   5.71894639
_cell_length_b   5.71894618
_cell_length_c   4.82506697
_cell_angle_alpha   90.00000000
_cell_angle_beta   90.00000000
_cell_angle_gamma   120.00000114
_symmetry_Int_Tables_number   1
_chemical_formula_structural   BaNiO3
_chemical_formula_sum   'Ba2 Ni2 O6'
_cell_volume   136.66773824
_cell_formula_units_Z   2
loop_
 _symmetry_equiv_pos_site_id
 _symmetry_equiv_pos_as_xyz
  1  'x, y, z'
loop_
 _atom_site_type_symbol
 _atom_site_label
 _atom_site_symmetry_multiplicity
 _atom_site_fract_x
 _atom_site_fract_y
 _atom_site_fract_z
 _atom_site_occupancy
  Ba  Ba1  1  0.666667  0.333333  0.250000  1.0
  Ba  Ba2  1  0.333333  0.666667  0.750000  1.0
  Ni  Ni3  1  0.000000  0.000000  0.500000  1.0
  Ni  Ni4  1  0.000000  0.000000  0.000000  1.0
  O  O5  1  0.853533  0.707066  0.750000  1.0
  O  O6  1  0.146467  0.853533  0.250000  1.0
  O  O7  1  0.707066  0.853533  0.250000  1.0
  O  O8  1  0.292934  0.146467  0.750000  1.0
  O  O9  1  0.146467  0.292934  0.250000  1.0
  O  O10  1  0.853533  0.146467  0.750000  1.0
