# generated using pymatgen
data_Mn2V2O7
_symmetry_space_group_name_H-M   'P 1'
_cell_length_a   5.10109267
_cell_length_b   5.55634358
_cell_length_c   5.55634358
_cell_angle_alpha   107.90844184
_cell_angle_beta   97.09429160
_cell_angle_gamma   97.09429160
_symmetry_Int_Tables_number   1
_chemical_formula_structural   Mn2V2O7
_chemical_formula_sum   'Mn2 V2 O7'
_cell_volume   146.51762094
_cell_formula_units_Z   1
loop_
 _symmetry_equiv_pos_site_id
 _symmetry_equiv_pos_as_xyz
  1  'x, y, z'
loop_
 _atom_site_type_symbol
 _atom_site_label
 _atom_site_symmetry_multiplicity
 _atom_site_fract_x
 _atom_site_fract_y
 _atom_site_fract_z
 _atom_site_occupancy
  Mn  Mn1  1  0.000000  0.812713  0.187287  1.0
  Mn  Mn2  1  0.000000  0.187287  0.812713  1.0
  V  V3  1  0.396282  0.744890  0.744890  1.0
  V  V4  1  0.603718  0.255110  0.255110  1.0
  O  O5  1  0.793487  0.432360  0.108206  1.0
  O  O6  1  0.206513  0.891794  0.567640  1.0
  O  O7  1  0.206513  0.567640  0.891794  1.0
  O  O8  1  0.793487  0.108206  0.432360  1.0
  O  O9  1  0.500000  0.500000  0.500000  1.0
  O  O10  1  0.283062  0.080472  0.080472  1.0
  O  O11  1  0.716938  0.919528  0.919528  1.0
