# generated using pymatgen
data_K6Co2O7
_symmetry_space_group_name_H-M   'P 1'
_cell_length_a   6.63697790
_cell_length_b   9.20836731
_cell_length_c   9.31937014
_cell_angle_alpha   90.00000000
_cell_angle_beta   92.33980201
_cell_angle_gamma   90.00000000
_symmetry_Int_Tables_number   1
_chemical_formula_structural   K6Co2O7
_chemical_formula_sum   'K12 Co4 O14'
_cell_volume   569.08525607
_cell_formula_units_Z   2
loop_
 _symmetry_equiv_pos_site_id
 _symmetry_equiv_pos_as_xyz
  1  'x, y, z'
loop_
 _atom_site_type_symbol
 _atom_site_label
 _atom_site_symmetry_multiplicity
 _atom_site_fract_x
 _atom_site_fract_y
 _atom_site_fract_z
 _atom_site_occupancy
  K  K1  1  0.365114  0.798020  0.787228  1.0
  K  K2  1  0.134886  0.298020  0.712772  1.0
  K  K3  1  0.635434  0.348947  0.566851  1.0
  K  K4  1  0.864566  0.848947  0.933149  1.0
  K  K5  1  0.364566  0.651053  0.433149  1.0
  K  K6  1  0.135434  0.151053  0.066851  1.0
  K  K7  1  0.746180  0.473074  0.942934  1.0
  K  K8  1  0.753820  0.973074  0.557066  1.0
  K  K9  1  0.253820  0.526926  0.057066  1.0
  K  K10  1  0.246180  0.026926  0.442934  1.0
  K  K11  1  0.634886  0.201980  0.212772  1.0
  K  K12  1  0.865114  0.701980  0.287228  1.0
  Co  Co13  1  0.054312  0.356621  0.364293  1.0
  Co  Co14  1  0.445688  0.856621  0.135707  1.0
  Co  Co15  1  0.945688  0.643379  0.635707  1.0
  Co  Co16  1  0.554312  0.143379  0.864293  1.0
  O  O17  1  0.000000  0.500000  0.500000  1.0
  O  O18  1  0.500000  0.000000  0.000000  1.0
  O  O19  1  0.677096  0.667478  0.642387  1.0
  O  O20  1  0.822904  0.167478  0.857613  1.0
  O  O21  1  0.428264  0.301640  0.928140  1.0
  O  O22  1  0.071736  0.801640  0.571860  1.0
  O  O23  1  0.571736  0.698360  0.071860  1.0
  O  O24  1  0.928264  0.198360  0.428140  1.0
  O  O25  1  0.947492  0.404124  0.191428  1.0
  O  O26  1  0.552508  0.904124  0.308572  1.0
  O  O27  1  0.052508  0.595876  0.808572  1.0
  O  O28  1  0.447492  0.095876  0.691428  1.0
  O  O29  1  0.177096  0.832522  0.142387  1.0
  O  O30  1  0.322904  0.332522  0.357613  1.0
