# generated using pymatgen
data_CrPbO4
_symmetry_space_group_name_H-M   'P 1'
_cell_length_a   6.92266881
_cell_length_b   7.28834530
_cell_length_c   7.62051118
_cell_angle_alpha   90.00000000
_cell_angle_beta   90.00000000
_cell_angle_gamma   102.90906182
_symmetry_Int_Tables_number   1
_chemical_formula_structural   CrPbO4
_chemical_formula_sum   'Cr4 Pb4 O16'
_cell_volume   374.77368895
_cell_formula_units_Z   4
loop_
 _symmetry_equiv_pos_site_id
 _symmetry_equiv_pos_as_xyz
  1  'x, y, z'
loop_
 _atom_site_type_symbol
 _atom_site_label
 _atom_site_symmetry_multiplicity
 _atom_site_fract_x
 _atom_site_fract_y
 _atom_site_fract_z
 _atom_site_occupancy
  Cr  Cr1  1  0.384550  0.701712  0.334887  1.0
  Cr  Cr2  1  0.884550  0.201712  0.165113  1.0
  Cr  Cr3  1  0.115462  0.798294  0.834887  1.0
  Cr  Cr4  1  0.615462  0.298294  0.665113  1.0
  Pb  Pb5  1  0.903931  0.715692  0.366757  1.0
  Pb  Pb6  1  0.596068  0.784308  0.866763  1.0
  Pb  Pb7  1  0.096068  0.284308  0.633237  1.0
  Pb  Pb8  1  0.403931  0.215692  0.133243  1.0
  O  O9  1  0.293666  0.888551  0.290617  1.0
  O  O10  1  0.206336  0.611436  0.790617  1.0
  O  O11  1  0.706336  0.111436  0.709383  1.0
  O  O12  1  0.793666  0.388551  0.209382  1.0
  O  O13  1  0.188020  0.537039  0.404889  1.0
  O  O14  1  0.311990  0.962967  0.904900  1.0
  O  O15  1  0.811990  0.462967  0.595100  1.0
  O  O16  1  0.688020  0.037039  0.095111  1.0
  O  O17  1  0.063138  0.247180  0.014399  1.0
  O  O18  1  0.436850  0.252819  0.514386  1.0
  O  O19  1  0.936850  0.752819  0.985614  1.0
  O  O20  1  0.563138  0.747180  0.485601  1.0
  O  O21  1  0.979032  0.125218  0.346042  1.0
  O  O22  1  0.520956  0.374784  0.846051  1.0
  O  O23  1  0.020956  0.874784  0.653949  1.0
  O  O24  1  0.479032  0.625218  0.153958  1.0
