# generated using pymatgen
data_Er(SiNi)2
_symmetry_space_group_name_H-M   'P 1'
_cell_length_a   3.95259371
_cell_length_b   3.95259402
_cell_length_c   5.51748483
_cell_angle_alpha   110.98894286
_cell_angle_beta   110.98895066
_cell_angle_gamma   90.00000856
_symmetry_Int_Tables_number   1
_chemical_formula_structural   Er(SiNi)2
_chemical_formula_sum   'Er1 Si2 Ni2'
_cell_volume   74.32204631
_cell_formula_units_Z   1
loop_
 _symmetry_equiv_pos_site_id
 _symmetry_equiv_pos_as_xyz
  1  'x, y, z'
loop_
 _atom_site_type_symbol
 _atom_site_label
 _atom_site_symmetry_multiplicity
 _atom_site_fract_x
 _atom_site_fract_y
 _atom_site_fract_z
 _atom_site_occupancy
  Er  Er1  1  0.000000  0.000000  0.000000  1.0
  Si  Si2  1  0.625826  0.625826  0.251653  1.0
  Si  Si3  1  0.374174  0.374174  0.748347  1.0
  Ni  Ni4  1  0.750000  0.250000  0.500000  1.0
  Ni  Ni5  1  0.250000  0.750000  0.500000  1.0
