# generated using pymatgen
data_K2Mn2O3
_symmetry_space_group_name_H-M   'P 1'
_cell_length_a   6.18832644
_cell_length_b   6.55441455
_cell_length_c   6.53402497
_cell_angle_alpha   90.00000000
_cell_angle_beta   90.00000000
_cell_angle_gamma   115.42499192
_symmetry_Int_Tables_number   1
_chemical_formula_structural   K2Mn2O3
_chemical_formula_sum   'K4 Mn4 O6'
_cell_volume   239.35741605
_cell_formula_units_Z   2
loop_
 _symmetry_equiv_pos_site_id
 _symmetry_equiv_pos_as_xyz
  1  'x, y, z'
loop_
 _atom_site_type_symbol
 _atom_site_label
 _atom_site_symmetry_multiplicity
 _atom_site_fract_x
 _atom_site_fract_y
 _atom_site_fract_z
 _atom_site_occupancy
  K  K1  1  0.816404  0.071928  0.360797  1.0
  K  K2  1  0.816404  0.571928  0.139203  1.0
  K  K3  1  0.183596  0.928072  0.639203  1.0
  K  K4  1  0.183596  0.428072  0.860797  1.0
  Mn  Mn5  1  0.332404  0.071829  0.114743  1.0
  Mn  Mn6  1  0.332404  0.571829  0.385257  1.0
  Mn  Mn7  1  0.667596  0.928171  0.885257  1.0
  Mn  Mn8  1  0.667596  0.428171  0.614743  1.0
  O  O9  1  0.000000  0.500000  0.500000  1.0
  O  O10  1  0.588829  0.714703  0.630207  1.0
  O  O11  1  0.411171  0.785297  0.130207  1.0
  O  O12  1  0.411171  0.285297  0.369793  1.0
  O  O13  1  0.000000  0.000000  0.000000  1.0
  O  O14  1  0.588829  0.214703  0.869793  1.0
