# generated using pymatgen
data_SnF4
_symmetry_space_group_name_H-M   'P 1'
_cell_length_a   4.15840327
_cell_length_b   4.15837535
_cell_length_c   5.11539005
_cell_angle_alpha   114.03352975
_cell_angle_beta   113.98265307
_cell_angle_gamma   89.99999998
_symmetry_Int_Tables_number   1
_chemical_formula_structural   SnF4
_chemical_formula_sum   'Sn1 F4'
_cell_volume   72.34629128
_cell_formula_units_Z   1
loop_
 _symmetry_equiv_pos_site_id
 _symmetry_equiv_pos_as_xyz
  1  'x, y, z'
loop_
 _atom_site_type_symbol
 _atom_site_label
 _atom_site_symmetry_multiplicity
 _atom_site_fract_x
 _atom_site_fract_y
 _atom_site_fract_z
 _atom_site_occupancy
  Sn  Sn1  1  0.000000  0.000000  0.000000  1.0
  F  F2  1  0.771841  0.771439  0.543682  1.0
  F  F3  1  0.000000  0.500000  0.000000  1.0
  F  F4  1  0.500000  0.000000  0.000000  1.0
  F  F5  1  0.228159  0.228561  0.456318  1.0
