# generated using pymatgen
data_Li4Fe3O8
_symmetry_space_group_name_H-M   'P 1'
_cell_length_a   6.14476813
_cell_length_b   10.80907138
_cell_length_c   10.81465458
_cell_angle_alpha   31.27030898
_cell_angle_beta   28.31030147
_cell_angle_gamma   51.33508861
_symmetry_Int_Tables_number   1
_chemical_formula_structural   Li4Fe3O8
_chemical_formula_sum   'Li4 Fe3 O8'
_cell_volume   151.15840552
_cell_formula_units_Z   1
loop_
 _symmetry_equiv_pos_site_id
 _symmetry_equiv_pos_as_xyz
  1  'x, y, z'
loop_
 _atom_site_type_symbol
 _atom_site_label
 _atom_site_symmetry_multiplicity
 _atom_site_fract_x
 _atom_site_fract_y
 _atom_site_fract_z
 _atom_site_occupancy
  Li  Li1  1  0.001235  0.000183  0.000033  1.0
  Li  Li2  1  0.359956  0.358625  0.999892  1.0
  Li  Li3  1  0.500910  0.499641  0.999994  1.0
  Li  Li4  1  0.641544  0.640856  0.000298  1.0
  Fe  Fe5  1  0.501058  0.999802  0.999998  1.0
  Fe  Fe6  1  0.501074  0.499820  0.499982  1.0
  Fe  Fe7  1  0.501085  0.999823  0.499974  1.0
  O  O8  1  0.239620  0.237872  0.000060  1.0
  O  O9  1  0.219126  0.744105  0.000015  1.0
  O  O10  1  0.219409  0.218674  0.525538  1.0
  O  O11  1  0.270729  0.744255  0.474256  1.0
  O  O12  1  0.762442  0.761658  0.999908  1.0
  O  O13  1  0.782965  0.255522  0.999963  1.0
  O  O14  1  0.782664  0.780936  0.474461  1.0
  O  O15  1  0.731337  0.255349  0.525742  1.0
