# generated using pymatgen
data_ErSi2Ni
_symmetry_space_group_name_H-M   'P 1'
_cell_length_a   3.94250740
_cell_length_b   3.95045330
_cell_length_c   8.49277021
_cell_angle_alpha   103.44886668
_cell_angle_beta   90.00000000
_cell_angle_gamma   90.00000000
_symmetry_Int_Tables_number   1
_chemical_formula_structural   ErSi2Ni
_chemical_formula_sum   'Er2 Si4 Ni2'
_cell_volume   128.64508740
_cell_formula_units_Z   2
loop_
 _symmetry_equiv_pos_site_id
 _symmetry_equiv_pos_as_xyz
  1  'x, y, z'
loop_
 _atom_site_type_symbol
 _atom_site_label
 _atom_site_symmetry_multiplicity
 _atom_site_fract_x
 _atom_site_fract_y
 _atom_site_fract_z
 _atom_site_occupancy
  Er  Er1  1  0.250000  0.894581  0.789161  1.0
  Er  Er2  1  0.750000  0.105419  0.210839  1.0
  Si  Si3  1  0.250000  0.250771  0.501541  1.0
  Si  Si4  1  0.750000  0.749229  0.498459  1.0
  Si  Si5  1  0.750000  0.460237  0.920475  1.0
  Si  Si6  1  0.250000  0.539763  0.079525  1.0
  Ni  Ni7  1  0.750000  0.323892  0.647784  1.0
  Ni  Ni8  1  0.250000  0.676108  0.352216  1.0
