# generated using pymatgen
data_Lu(NiGe)2
_symmetry_space_group_name_H-M   'P 1'
_cell_length_a   4.02115871
_cell_length_b   4.02115871
_cell_length_c   5.64791395
_cell_angle_alpha   110.85389765
_cell_angle_beta   110.85389767
_cell_angle_gamma   89.99999999
_symmetry_Int_Tables_number   1
_chemical_formula_structural   Lu(NiGe)2
_chemical_formula_sum   'Lu1 Ni2 Ge2'
_cell_volume   78.90767950
_cell_formula_units_Z   1
loop_
 _symmetry_equiv_pos_site_id
 _symmetry_equiv_pos_as_xyz
  1  'x, y, z'
loop_
 _atom_site_type_symbol
 _atom_site_label
 _atom_site_symmetry_multiplicity
 _atom_site_fract_x
 _atom_site_fract_y
 _atom_site_fract_z
 _atom_site_occupancy
  Lu  Lu1  1  0.000000  0.000000  0.000000  1.0
  Ni  Ni2  1  0.750000  0.250000  0.500000  1.0
  Ni  Ni3  1  0.250000  0.750000  0.500000  1.0
  Ge  Ge4  1  0.626632  0.626632  0.253263  1.0
  Ge  Ge5  1  0.373368  0.373368  0.746737  1.0
