# generated using pymatgen
data_Li(Fe3Ge2)2
_symmetry_space_group_name_H-M   'P 1'
_cell_length_a   7.12417027
_cell_length_b   7.12417055
_cell_length_c   7.12417094
_cell_angle_alpha   41.49420173
_cell_angle_beta   41.49419919
_cell_angle_gamma   41.49420158
_symmetry_Int_Tables_number   1
_chemical_formula_structural   Li(Fe3Ge2)2
_chemical_formula_sum   'Li1 Fe6 Ge4'
_cell_volume   143.42914385
_cell_formula_units_Z   1
loop_
 _symmetry_equiv_pos_site_id
 _symmetry_equiv_pos_as_xyz
  1  'x, y, z'
loop_
 _atom_site_type_symbol
 _atom_site_label
 _atom_site_symmetry_multiplicity
 _atom_site_fract_x
 _atom_site_fract_y
 _atom_site_fract_z
 _atom_site_occupancy
  Li  Li1  1  0.000000  0.000000  0.000000  1.0
  Fe  Fe2  1  0.886408  0.399785  0.399785  1.0
  Fe  Fe3  1  0.600215  0.113592  0.600215  1.0
  Fe  Fe4  1  0.600215  0.600215  0.113592  1.0
  Fe  Fe5  1  0.113592  0.600215  0.600215  1.0
  Fe  Fe6  1  0.399785  0.399785  0.886408  1.0
  Fe  Fe7  1  0.399785  0.886408  0.399785  1.0
  Ge  Ge8  1  0.127260  0.127260  0.127260  1.0
  Ge  Ge9  1  0.331593  0.331593  0.331593  1.0
  Ge  Ge10  1  0.668407  0.668407  0.668407  1.0
  Ge  Ge11  1  0.872740  0.872740  0.872740  1.0
