# generated using pymatgen
data_FeSb2
_symmetry_space_group_name_H-M   'P 1'
_cell_length_a   3.27606424
_cell_length_b   5.77916245
_cell_length_c   6.51953917
_cell_angle_alpha   90.00000000
_cell_angle_beta   90.00000000
_cell_angle_gamma   90.00000000
_symmetry_Int_Tables_number   1
_chemical_formula_structural   FeSb2
_chemical_formula_sum   'Fe2 Sb4'
_cell_volume   123.43383165
_cell_formula_units_Z   2
loop_
 _symmetry_equiv_pos_site_id
 _symmetry_equiv_pos_as_xyz
  1  'x, y, z'
loop_
 _atom_site_type_symbol
 _atom_site_label
 _atom_site_symmetry_multiplicity
 _atom_site_fract_x
 _atom_site_fract_y
 _atom_site_fract_z
 _atom_site_occupancy
  Fe  Fe1  1  0.006478  0.000000  0.000000  1.0
  Fe  Fe2  1  0.506478  0.500000  0.500000  1.0
  Sb  Sb3  1  0.006461  0.196477  0.355184  1.0
  Sb  Sb4  1  0.006461  0.803523  0.644816  1.0
  Sb  Sb5  1  0.506461  0.303523  0.855184  1.0
  Sb  Sb6  1  0.506461  0.696477  0.144816  1.0
