# generated using pymatgen
data_Pr(Re2Si)2
_symmetry_space_group_name_H-M   'P 1'
_cell_length_a   4.13286249
_cell_length_b   4.17743836
_cell_length_c   7.35482308
_cell_angle_alpha   106.49866809
_cell_angle_beta   90.00000000
_cell_angle_gamma   90.00000000
_symmetry_Int_Tables_number   1
_chemical_formula_structural   Pr(Re2Si)2
_chemical_formula_sum   'Pr1 Re4 Si2'
_cell_volume   121.75118331
_cell_formula_units_Z   1
loop_
 _symmetry_equiv_pos_site_id
 _symmetry_equiv_pos_as_xyz
  1  'x, y, z'
loop_
 _atom_site_type_symbol
 _atom_site_label
 _atom_site_symmetry_multiplicity
 _atom_site_fract_x
 _atom_site_fract_y
 _atom_site_fract_z
 _atom_site_occupancy
  Pr  Pr1  1  0.000000  0.000000  0.000000  1.0
  Re  Re2  1  0.500000  0.189661  0.379323  1.0
  Re  Re3  1  0.500000  0.810339  0.620677  1.0
  Re  Re4  1  0.000000  0.303892  0.607785  1.0
  Re  Re5  1  0.000000  0.696108  0.392215  1.0
  Si  Si6  1  0.500000  0.410729  0.821458  1.0
  Si  Si7  1  0.500000  0.589271  0.178542  1.0
