# generated using pymatgen
data_CaZrF6
_symmetry_space_group_name_H-M   'P 1'
_cell_length_a   6.10102920
_cell_length_b   6.10102920
_cell_length_c   6.10102920
_cell_angle_alpha   60.00000000
_cell_angle_beta   60.00000000
_cell_angle_gamma   60.00000000
_symmetry_Int_Tables_number   1
_chemical_formula_structural   CaZrF6
_chemical_formula_sum   'Ca1 Zr1 F6'
_cell_volume   160.58105722
_cell_formula_units_Z   1
loop_
 _symmetry_equiv_pos_site_id
 _symmetry_equiv_pos_as_xyz
  1  'x, y, z'
loop_
 _atom_site_type_symbol
 _atom_site_label
 _atom_site_symmetry_multiplicity
 _atom_site_fract_x
 _atom_site_fract_y
 _atom_site_fract_z
 _atom_site_occupancy
  Ca  Ca1  1  0.500000  0.500000  0.500000  1.0
  Zr  Zr2  1  0.000000  0.000000  0.000000  1.0
  F  F3  1  0.763332  0.763332  0.236668  1.0
  F  F4  1  0.236668  0.236668  0.763332  1.0
  F  F5  1  0.763332  0.236668  0.763332  1.0
  F  F6  1  0.236668  0.763332  0.236668  1.0
  F  F7  1  0.236668  0.763332  0.763332  1.0
  F  F8  1  0.763332  0.236668  0.236668  1.0
