# generated using pymatgen
data_Fe9Co7
_symmetry_space_group_name_H-M   'P 1'
_cell_length_a   5.69972480
_cell_length_b   5.69971322
_cell_length_c   5.69971595
_cell_angle_alpha   89.99881995
_cell_angle_beta   90.00029182
_cell_angle_gamma   89.99959690
_symmetry_Int_Tables_number   1
_chemical_formula_structural   Fe9Co7
_chemical_formula_sum   'Fe9 Co7'
_cell_volume   185.16551380
_cell_formula_units_Z   1
loop_
 _symmetry_equiv_pos_site_id
 _symmetry_equiv_pos_as_xyz
  1  'x, y, z'
loop_
 _atom_site_type_symbol
 _atom_site_label
 _atom_site_symmetry_multiplicity
 _atom_site_fract_x
 _atom_site_fract_y
 _atom_site_fract_z
 _atom_site_occupancy
  Fe  Fe1  1  0.249996  0.249995  0.249995  1.0
  Fe  Fe2  1  0.750010  0.249990  0.249989  1.0
  Fe  Fe3  1  0.750010  0.750011  0.750010  1.0
  Fe  Fe4  1  0.249990  0.750011  0.249990  1.0
  Fe  Fe5  1  0.249992  0.249991  0.750009  1.0
  Fe  Fe6  1  0.249996  0.750005  0.750003  1.0
  Fe  Fe7  1  0.750004  0.750005  0.249996  1.0
  Fe  Fe8  1  0.750001  0.249998  0.750001  1.0
  Fe  Fe9  1  0.500004  0.499985  0.500019  1.0
  Co  Co10  1  0.500003  0.000010  0.999987  1.0
  Co  Co11  1  0.999997  0.499991  0.500012  1.0
  Co  Co12  1  0.999997  0.000010  0.500013  1.0
  Co  Co13  1  0.999997  0.499990  0.999987  1.0
  Co  Co14  1  0.500003  0.499991  0.999988  1.0
  Co  Co15  1  0.999997  0.000009  0.999989  1.0
  Co  Co16  1  0.500003  0.000009  0.500012  1.0
