# generated using pymatgen
data_NaZn13
_symmetry_space_group_name_H-M   'P 1'
_cell_length_a   8.69409774
_cell_length_b   8.69409774
_cell_length_c   8.69409775
_cell_angle_alpha   60.00000001
_cell_angle_beta   60.00000001
_cell_angle_gamma   59.99999998
_symmetry_Int_Tables_number   1
_chemical_formula_structural   NaZn13
_chemical_formula_sum   'Na2 Zn26'
_cell_volume   464.68489703
_cell_formula_units_Z   2
loop_
 _symmetry_equiv_pos_site_id
 _symmetry_equiv_pos_as_xyz
  1  'x, y, z'
loop_
 _atom_site_type_symbol
 _atom_site_label
 _atom_site_symmetry_multiplicity
 _atom_site_fract_x
 _atom_site_fract_y
 _atom_site_fract_z
 _atom_site_occupancy
  Na  Na1  1  0.250000  0.250000  0.250000  1.0
  Na  Na2  1  0.750000  0.750000  0.750000  1.0
  Zn  Zn3  1  0.199710  0.800290  0.439325  1.0
  Zn  Zn4  1  0.699710  0.060675  0.939325  1.0
  Zn  Zn5  1  0.939325  0.300290  0.699710  1.0
  Zn  Zn6  1  0.699710  0.939325  0.300290  1.0
  Zn  Zn7  1  0.060675  0.300290  0.939325  1.0
  Zn  Zn8  1  0.060675  0.939325  0.699710  1.0
  Zn  Zn9  1  0.939325  0.060675  0.300290  1.0
  Zn  Zn10  1  0.439325  0.199710  0.800290  1.0
  Zn  Zn11  1  0.800290  0.439325  0.199710  1.0
  Zn  Zn12  1  0.560675  0.199710  0.439325  1.0
  Zn  Zn13  1  0.800290  0.560675  0.439325  1.0
  Zn  Zn14  1  0.560675  0.800290  0.199710  1.0
  Zn  Zn15  1  0.439325  0.800290  0.560675  1.0
  Zn  Zn16  1  0.199710  0.439325  0.560675  1.0
  Zn  Zn17  1  0.199710  0.560675  0.800290  1.0
  Zn  Zn18  1  0.939325  0.699710  0.060675  1.0
  Zn  Zn19  1  0.300290  0.939325  0.060675  1.0
  Zn  Zn20  1  0.300290  0.699710  0.939325  1.0
  Zn  Zn21  1  0.699710  0.300290  0.060675  1.0
  Zn  Zn22  1  0.060675  0.699710  0.300290  1.0
  Zn  Zn23  1  0.300290  0.060675  0.699710  1.0
  Zn  Zn24  1  0.439325  0.560675  0.199710  1.0
  Zn  Zn25  1  0.560675  0.439325  0.800290  1.0
  Zn  Zn26  1  0.800290  0.199710  0.560675  1.0
  Zn  Zn27  1  0.000000  0.000000  0.000000  1.0
  Zn  Zn28  1  0.500000  0.500000  0.500000  1.0
