# generated using pymatgen
data_Cs2CrCl4
_symmetry_space_group_name_H-M   'P 1'
_cell_length_a   5.16691739
_cell_length_b   5.16691739
_cell_length_c   9.20754222
_cell_angle_alpha   106.29486610
_cell_angle_beta   106.29486610
_cell_angle_gamma   90.00000002
_symmetry_Int_Tables_number   1
_chemical_formula_structural   Cs2CrCl4
_chemical_formula_sum   'Cs2 Cr1 Cl4'
_cell_volume   225.63388534
_cell_formula_units_Z   1
loop_
 _symmetry_equiv_pos_site_id
 _symmetry_equiv_pos_as_xyz
  1  'x, y, z'
loop_
 _atom_site_type_symbol
 _atom_site_label
 _atom_site_symmetry_multiplicity
 _atom_site_fract_x
 _atom_site_fract_y
 _atom_site_fract_z
 _atom_site_occupancy
  Cs  Cs1  1  0.357788  0.357788  0.715576  1.0
  Cs  Cs2  1  0.642212  0.642212  0.284424  1.0
  Cr  Cr3  1  0.000000  0.000000  0.000000  1.0
  Cl  Cl4  1  0.500000  0.000000  0.000000  1.0
  Cl  Cl5  1  0.000000  0.500000  0.000000  1.0
  Cl  Cl6  1  0.855133  0.855133  0.710265  1.0
  Cl  Cl7  1  0.144867  0.144867  0.289735  1.0
