# generated using pymatgen
data_Ba(PdO2)2
_symmetry_space_group_name_H-M   'P 1'
_cell_length_a   6.90436605
_cell_length_b   6.90436605
_cell_length_c   6.90436605
_cell_angle_alpha   124.99144999
_cell_angle_beta   124.99144999
_cell_angle_gamma   81.55219494
_symmetry_Int_Tables_number   1
_chemical_formula_structural   Ba(PdO2)2
_chemical_formula_sum   'Ba2 Pd4 O8'
_cell_volume   212.62604708
_cell_formula_units_Z   2
loop_
 _symmetry_equiv_pos_site_id
 _symmetry_equiv_pos_as_xyz
  1  'x, y, z'
loop_
 _atom_site_type_symbol
 _atom_site_label
 _atom_site_symmetry_multiplicity
 _atom_site_fract_x
 _atom_site_fract_y
 _atom_site_fract_z
 _atom_site_occupancy
  Ba  Ba1  1  0.375000  0.125000  0.250000  1.0
  Ba  Ba2  1  0.625000  0.875000  0.750000  1.0
  Pd  Pd3  1  0.500000  0.500000  0.000000  1.0
  Pd  Pd4  1  0.000000  0.000000  0.500000  1.0
  Pd  Pd5  1  0.000000  0.500000  0.000000  1.0
  Pd  Pd6  1  0.000000  0.500000  0.500000  1.0
  O  O7  1  0.980542  0.318527  0.135185  1.0
  O  O8  1  0.818527  0.183342  0.337986  1.0
  O  O9  1  0.345356  0.480542  0.162014  1.0
  O  O10  1  0.316658  0.154644  0.635185  1.0
  O  O11  1  0.683342  0.845356  0.364815  1.0
  O  O12  1  0.654644  0.519458  0.837986  1.0
  O  O13  1  0.181473  0.816658  0.662014  1.0
  O  O14  1  0.019458  0.681473  0.864815  1.0
