# generated using pymatgen
data_Co(HO)2
_symmetry_space_group_name_H-M   'P 1'
_cell_length_a   3.31157550
_cell_length_b   3.25900641
_cell_length_c   5.03609605
_cell_angle_alpha   80.63116801
_cell_angle_beta   92.56243424
_cell_angle_gamma   124.19285927
_symmetry_Int_Tables_number   1
_chemical_formula_structural   Co(HO)2
_chemical_formula_sum   'Co1 H2 O2'
_cell_volume   44.28451147
_cell_formula_units_Z   1
loop_
 _symmetry_equiv_pos_site_id
 _symmetry_equiv_pos_as_xyz
  1  'x, y, z'
loop_
 _atom_site_type_symbol
 _atom_site_label
 _atom_site_symmetry_multiplicity
 _atom_site_fract_x
 _atom_site_fract_y
 _atom_site_fract_z
 _atom_site_occupancy
  Co  Co1  1  0.032940  0.002474  0.966167  1.0
  H  H2  1  0.432037  0.874216  0.572668  1.0
  H  H3  1  0.485426  0.436911  0.354774  1.0
  O  O4  1  0.396377  0.759104  0.768347  1.0
  O  O5  1  0.589317  0.327844  0.219241  1.0
