# generated using pymatgen
data_Bi2PdO4
_symmetry_space_group_name_H-M   'P 1'
_cell_length_a   5.69728446
_cell_length_b   7.06014290
_cell_length_c   7.06014218
_cell_angle_alpha   80.62883698
_cell_angle_beta   66.20475459
_cell_angle_gamma   66.20475872
_symmetry_Int_Tables_number   1
_chemical_formula_structural   Bi2PdO4
_chemical_formula_sum   'Bi4 Pd2 O8'
_cell_volume   237.75548419
_cell_formula_units_Z   2
loop_
 _symmetry_equiv_pos_site_id
 _symmetry_equiv_pos_as_xyz
  1  'x, y, z'
loop_
 _atom_site_type_symbol
 _atom_site_label
 _atom_site_symmetry_multiplicity
 _atom_site_fract_x
 _atom_site_fract_y
 _atom_site_fract_z
 _atom_site_occupancy
  Bi  Bi1  1  0.650419  0.499976  0.152690  1.0
  Bi  Bi2  1  0.803094  0.847296  0.500021  1.0
  Bi  Bi3  1  0.150419  0.152690  0.499976  1.0
  Bi  Bi4  1  0.303094  0.500021  0.847296  1.0
  Pd  Pd5  1  0.672903  0.000004  0.000000  1.0
  Pd  Pd6  1  0.172903  0.000000  0.000004  1.0
  O  O7  1  0.552134  0.913640  0.303813  1.0
  O  O8  1  0.965732  0.086408  0.303809  1.0
  O  O9  1  0.052134  0.303813  0.913640  1.0
  O  O10  1  0.769623  0.086348  0.696188  1.0
  O  O11  1  0.355995  0.913629  0.696179  1.0
  O  O12  1  0.855995  0.696179  0.913629  1.0
  O  O13  1  0.465732  0.303809  0.086408  1.0
  O  O14  1  0.269623  0.696188  0.086348  1.0
