# generated using pymatgen
data_Ti2VTe4
_symmetry_space_group_name_H-M   'P 1'
_cell_length_a   3.85680255
_cell_length_b   6.94237670
_cell_length_c   7.45394663
_cell_angle_alpha   116.76821271
_cell_angle_beta   104.99345817
_cell_angle_gamma   90.00000000
_symmetry_Int_Tables_number   1
_chemical_formula_structural   Ti2VTe4
_chemical_formula_sum   'Ti2 V1 Te4'
_cell_volume   170.54947367
_cell_formula_units_Z   1
loop_
 _symmetry_equiv_pos_site_id
 _symmetry_equiv_pos_as_xyz
  1  'x, y, z'
loop_
 _atom_site_type_symbol
 _atom_site_label
 _atom_site_symmetry_multiplicity
 _atom_site_fract_x
 _atom_site_fract_y
 _atom_site_fract_z
 _atom_site_occupancy
  Ti  Ti1  1  0.251550  0.295345  0.503100  1.0
  Ti  Ti2  1  0.748450  0.704654  0.496900  1.0
  V  V3  1  0.000000  0.000000  0.000000  1.0
  Te  Te4  1  0.107424  0.446491  0.214848  1.0
  Te  Te5  1  0.892576  0.553509  0.785152  1.0
  Te  Te6  1  0.366220  0.032699  0.732440  1.0
  Te  Te7  1  0.633780  0.967301  0.267560  1.0
