# generated using pymatgen
data_InOF
_symmetry_space_group_name_H-M   'P 1'
_cell_length_a   5.56630483
_cell_length_b   5.56630483
_cell_length_c   6.30240513
_cell_angle_alpha   111.49283514
_cell_angle_beta   111.49283519
_cell_angle_gamma   99.80684254
_symmetry_Int_Tables_number   1
_chemical_formula_structural   InOF
_chemical_formula_sum   'In4 O4 F4'
_cell_volume   158.25288312
_cell_formula_units_Z   4
loop_
 _symmetry_equiv_pos_site_id
 _symmetry_equiv_pos_as_xyz
  1  'x, y, z'
loop_
 _atom_site_type_symbol
 _atom_site_label
 _atom_site_symmetry_multiplicity
 _atom_site_fract_x
 _atom_site_fract_y
 _atom_site_fract_z
 _atom_site_occupancy
  In  In1  1  0.075569  0.924431  0.250000  1.0
  In  In2  1  0.674431  0.325569  0.250000  1.0
  In  In3  1  0.924431  0.075569  0.750000  1.0
  In  In4  1  0.325569  0.674431  0.750000  1.0
  O  O5  1  0.011409  0.261408  0.522817  1.0
  O  O6  1  0.261408  0.011409  0.022817  1.0
  O  O7  1  0.988591  0.738591  0.477183  1.0
  O  O8  1  0.738591  0.988591  0.977183  1.0
  F  F9  1  0.500000  0.000000  0.500000  1.0
  F  F10  1  0.500000  0.500000  0.500000  1.0
  F  F11  1  0.000000  0.500000  0.000000  1.0
  F  F12  1  0.500000  0.500000  0.000000  1.0
