# generated using pymatgen
data_Sm(CoB)2
_symmetry_space_group_name_H-M   'P 1'
_cell_length_a   3.57369690
_cell_length_b   3.57369689
_cell_length_c   5.49165177
_cell_angle_alpha   108.98832068
_cell_angle_beta   108.98832069
_cell_angle_gamma   89.99999993
_symmetry_Int_Tables_number   1
_chemical_formula_structural   Sm(CoB)2
_chemical_formula_sum   'Sm1 Co2 B2'
_cell_volume   62.26924909
_cell_formula_units_Z   1
loop_
 _symmetry_equiv_pos_site_id
 _symmetry_equiv_pos_as_xyz
  1  'x, y, z'
loop_
 _atom_site_type_symbol
 _atom_site_label
 _atom_site_symmetry_multiplicity
 _atom_site_fract_x
 _atom_site_fract_y
 _atom_site_fract_z
 _atom_site_occupancy
  Sm  Sm1  1  0.000000  0.000000  0.000000  1.0
  Co  Co2  1  0.250000  0.750000  0.500000  1.0
  Co  Co3  1  0.750000  0.250000  0.500000  1.0
  B  B4  1  0.658743  0.658743  0.317486  1.0
  B  B5  1  0.341257  0.341257  0.682514  1.0
