# generated using pymatgen
data_K2CO3
_symmetry_space_group_name_H-M   'P 1'
_cell_length_a   5.73175924
_cell_length_b   7.14730839
_cell_length_c   9.87039588
_cell_angle_alpha   90.00000000
_cell_angle_beta   90.00000000
_cell_angle_gamma   97.32860826
_symmetry_Int_Tables_number   1
_chemical_formula_structural   K2CO3
_chemical_formula_sum   'K8 C4 O12'
_cell_volume   401.05381874
_cell_formula_units_Z   4
loop_
 _symmetry_equiv_pos_site_id
 _symmetry_equiv_pos_as_xyz
  1  'x, y, z'
loop_
 _atom_site_type_symbol
 _atom_site_label
 _atom_site_symmetry_multiplicity
 _atom_site_fract_x
 _atom_site_fract_y
 _atom_site_fract_z
 _atom_site_occupancy
  K  K1  1  0.257958  0.524637  0.768177  1.0
  K  K2  1  0.742042  0.975363  0.268176  1.0
  K  K3  1  0.742042  0.475363  0.231823  1.0
  K  K4  1  0.257958  0.024637  0.731823  1.0
  K  K5  1  0.758462  0.306440  0.581558  1.0
  K  K6  1  0.241538  0.193560  0.081558  1.0
  K  K7  1  0.241538  0.693560  0.418442  1.0
  K  K8  1  0.758462  0.806440  0.918442  1.0
  C  C9  1  0.748903  0.744176  0.584112  1.0
  C  C10  1  0.748903  0.244176  0.915888  1.0
  C  C11  1  0.251097  0.255824  0.415888  1.0
  C  C12  1  0.251097  0.755824  0.084112  1.0
  O  O13  1  0.937527  0.224193  0.845734  1.0
  O  O14  1  0.062473  0.275807  0.345734  1.0
  O  O15  1  0.062473  0.775807  0.154266  1.0
  O  O16  1  0.937527  0.724193  0.654266  1.0
  O  O17  1  0.571768  0.310787  0.859015  1.0
  O  O18  1  0.571768  0.810787  0.640985  1.0
  O  O19  1  0.428232  0.689213  0.140985  1.0
  O  O20  1  0.428232  0.189213  0.359015  1.0
  O  O21  1  0.261914  0.806414  0.956696  1.0
  O  O22  1  0.738085  0.693586  0.456696  1.0
  O  O23  1  0.738085  0.193586  0.043304  1.0
  O  O24  1  0.261914  0.306414  0.543304  1.0
