# generated using pymatgen
data_Ac3Yb
_symmetry_space_group_name_H-M   'P 1'
_cell_length_a   7.95127773
_cell_length_b   7.95127716
_cell_length_c   6.39753885
_cell_angle_alpha   90.00000000
_cell_angle_beta   90.00000000
_cell_angle_gamma   119.99999817
_symmetry_Int_Tables_number   1
_chemical_formula_structural   Ac3Yb
_chemical_formula_sum   'Ac6 Yb2'
_cell_volume   350.28165003
_cell_formula_units_Z   2
loop_
 _symmetry_equiv_pos_site_id
 _symmetry_equiv_pos_as_xyz
  1  'x, y, z'
loop_
 _atom_site_type_symbol
 _atom_site_label
 _atom_site_symmetry_multiplicity
 _atom_site_fract_x
 _atom_site_fract_y
 _atom_site_fract_z
 _atom_site_occupancy
  Ac  Ac1  1  0.166489  0.332978  0.250000  1.0
  Ac  Ac2  1  0.667021  0.833511  0.250000  1.0
  Ac  Ac3  1  0.166489  0.833511  0.250000  1.0
  Ac  Ac4  1  0.833511  0.667022  0.750000  1.0
  Ac  Ac5  1  0.332979  0.166489  0.750000  1.0
  Ac  Ac6  1  0.833511  0.166489  0.750000  1.0
  Yb  Yb7  1  0.333333  0.666667  0.750000  1.0
  Yb  Yb8  1  0.666667  0.333333  0.250000  1.0
