# generated using pymatgen
data_Ba2LiOsO6
_symmetry_space_group_name_H-M   'P 1'
_cell_length_a   5.80491705
_cell_length_b   5.80491705
_cell_length_c   5.80491705
_cell_angle_alpha   59.99999994
_cell_angle_beta   59.99999995
_cell_angle_gamma   59.99999996
_symmetry_Int_Tables_number   1
_chemical_formula_structural   Ba2LiOsO6
_chemical_formula_sum   'Ba2 Li1 Os1 O6'
_cell_volume   138.31620236
_cell_formula_units_Z   1
loop_
 _symmetry_equiv_pos_site_id
 _symmetry_equiv_pos_as_xyz
  1  'x, y, z'
loop_
 _atom_site_type_symbol
 _atom_site_label
 _atom_site_symmetry_multiplicity
 _atom_site_fract_x
 _atom_site_fract_y
 _atom_site_fract_z
 _atom_site_occupancy
  Ba  Ba1  1  0.250000  0.250000  0.250000  1.0
  Ba  Ba2  1  0.750000  0.750000  0.750000  1.0
  Li  Li3  1  0.500000  0.500000  0.500000  1.0
  Os  Os4  1  0.000000  0.000000  0.000000  1.0
  O  O5  1  0.766817  0.233183  0.766817  1.0
  O  O6  1  0.233183  0.766817  0.766817  1.0
  O  O7  1  0.233183  0.766817  0.233183  1.0
  O  O8  1  0.766817  0.233183  0.233183  1.0
  O  O9  1  0.766817  0.766817  0.233183  1.0
  O  O10  1  0.233183  0.233183  0.766817  1.0
