# generated using pymatgen
data_ZrO2
_symmetry_space_group_name_H-M   'P 1'
_cell_length_a   4.93334769
_cell_length_b   7.71092579
_cell_length_c   10.39676681
_cell_angle_alpha   137.83820473
_cell_angle_beta   18.40956076
_cell_angle_gamma   129.75254570
_symmetry_Int_Tables_number   1
_chemical_formula_structural   ZrO2
_chemical_formula_sum   'Zr2 O4'
_cell_volume   79.94452820
_cell_formula_units_Z   2
loop_
 _symmetry_equiv_pos_site_id
 _symmetry_equiv_pos_as_xyz
  1  'x, y, z'
loop_
 _atom_site_type_symbol
 _atom_site_label
 _atom_site_symmetry_multiplicity
 _atom_site_fract_x
 _atom_site_fract_y
 _atom_site_fract_z
 _atom_site_occupancy
  Zr  Zr1  1  0.505311  0.501091  0.998024  1.0
  Zr  Zr2  1  0.501809  0.001168  0.999836  1.0
  O  O3  1  0.112541  0.195334  0.694025  1.0
  O  O4  1  0.502465  0.695584  0.693763  1.0
  O  O5  1  0.503290  0.306812  0.304367  1.0
  O  O6  1  0.889691  0.806467  0.305542  1.0
