# generated using pymatgen
data_Ba2NiMoO6
_symmetry_space_group_name_H-M   'P 1'
_cell_length_a   5.78523272
_cell_length_b   5.78523238
_cell_length_c   5.78523216
_cell_angle_alpha   60.00011318
_cell_angle_beta   60.00015998
_cell_angle_gamma   60.00013844
_symmetry_Int_Tables_number   1
_chemical_formula_structural   Ba2NiMoO6
_chemical_formula_sum   'Ba2 Ni1 Mo1 O6'
_cell_volume   136.91429263
_cell_formula_units_Z   1
loop_
 _symmetry_equiv_pos_site_id
 _symmetry_equiv_pos_as_xyz
  1  'x, y, z'
loop_
 _atom_site_type_symbol
 _atom_site_label
 _atom_site_symmetry_multiplicity
 _atom_site_fract_x
 _atom_site_fract_y
 _atom_site_fract_z
 _atom_site_occupancy
  Ba  Ba1  1  0.750000  0.750000  0.750000  1.0
  Ba  Ba2  1  0.249999  0.249999  0.249999  1.0
  Ni  Ni3  1  0.000009  0.000000  0.000000  1.0
  Mo  Mo4  1  0.500000  0.500000  0.500000  1.0
  O  O5  1  0.260506  0.260507  0.739492  1.0
  O  O6  1  0.739491  0.260508  0.739493  1.0
  O  O7  1  0.739491  0.260507  0.260507  1.0
  O  O8  1  0.739491  0.739492  0.260508  1.0
  O  O9  1  0.260506  0.739492  0.260507  1.0
  O  O10  1  0.260507  0.739493  0.739492  1.0
