# generated using pymatgen
data_MgCu2O3
_symmetry_space_group_name_H-M   'P 1'
_cell_length_a   3.23389485
_cell_length_b   4.06185880
_cell_length_c   9.45428974
_cell_angle_alpha   90.00000000
_cell_angle_beta   90.00000000
_cell_angle_gamma   90.00000000
_symmetry_Int_Tables_number   1
_chemical_formula_structural   MgCu2O3
_chemical_formula_sum   'Mg2 Cu4 O6'
_cell_volume   124.18799762
_cell_formula_units_Z   2
loop_
 _symmetry_equiv_pos_site_id
 _symmetry_equiv_pos_as_xyz
  1  'x, y, z'
loop_
 _atom_site_type_symbol
 _atom_site_label
 _atom_site_symmetry_multiplicity
 _atom_site_fract_x
 _atom_site_fract_y
 _atom_site_fract_z
 _atom_site_occupancy
  Mg  Mg1  1  0.618144  0.750000  0.750000  1.0
  Mg  Mg2  1  0.381856  0.250000  0.250000  1.0
  Cu  Cu3  1  0.837476  0.750000  0.086211  1.0
  Cu  Cu4  1  0.837476  0.750000  0.413789  1.0
  Cu  Cu5  1  0.162524  0.250000  0.913789  1.0
  Cu  Cu6  1  0.162524  0.250000  0.586211  1.0
  O  O7  1  0.109614  0.750000  0.596879  1.0
  O  O8  1  0.109614  0.750000  0.903121  1.0
  O  O9  1  0.890386  0.250000  0.403121  1.0
  O  O10  1  0.492319  0.750000  0.250000  1.0
  O  O11  1  0.507681  0.250000  0.750000  1.0
  O  O12  1  0.890386  0.250000  0.096879  1.0
