# generated using pymatgen
data_MgB7
_symmetry_space_group_name_H-M   'P 1'
_cell_length_a   5.97398862
_cell_length_b   7.26397248
_cell_length_c   7.26397248
_cell_angle_alpha   92.19162023
_cell_angle_beta   114.28065741
_cell_angle_gamma   114.28065741
_symmetry_Int_Tables_number   1
_chemical_formula_structural   MgB7
_chemical_formula_sum   'Mg4 B28'
_cell_volume   253.63365065
_cell_formula_units_Z   4
loop_
 _symmetry_equiv_pos_site_id
 _symmetry_equiv_pos_as_xyz
  1  'x, y, z'
loop_
 _atom_site_type_symbol
 _atom_site_label
 _atom_site_symmetry_multiplicity
 _atom_site_fract_x
 _atom_site_fract_y
 _atom_site_fract_z
 _atom_site_occupancy
  Mg  Mg1  1  0.000000  0.000000  0.000000  1.0
  Mg  Mg2  1  0.500000  0.000000  0.000000  1.0
  Mg  Mg3  1  0.136153  0.386153  0.386153  1.0
  Mg  Mg4  1  0.863847  0.613847  0.613847  1.0
  B  B5  1  0.884936  0.243992  0.025882  1.0
  B  B6  1  0.208879  0.377484  0.033173  1.0
  B  B7  1  0.701777  0.377484  0.033173  1.0
  B  B8  1  0.676390  0.758618  0.094162  1.0
  B  B9  1  0.524278  0.358204  0.190351  1.0
  B  B10  1  0.507772  0.599666  0.226750  1.0
  B  B11  1  0.818643  0.599666  0.226750  1.0
  B  B12  1  0.323610  0.905838  0.241382  1.0
  B  B13  1  0.884936  0.025882  0.243992  1.0
  B  B14  1  0.524278  0.190351  0.358204  1.0
  B  B15  1  0.208879  0.033173  0.377484  1.0
  B  B16  1  0.701777  0.033173  0.377484  1.0
  B  B17  1  0.181357  0.773250  0.400334  1.0
  B  B18  1  0.492228  0.773250  0.400334  1.0
  B  B19  1  0.507772  0.226750  0.599666  1.0
  B  B20  1  0.818643  0.226750  0.599666  1.0
  B  B21  1  0.298223  0.966827  0.622516  1.0
  B  B22  1  0.791121  0.966827  0.622516  1.0
  B  B23  1  0.475722  0.809649  0.641796  1.0
  B  B24  1  0.115064  0.974118  0.756008  1.0
  B  B25  1  0.676390  0.094162  0.758618  1.0
  B  B26  1  0.181357  0.400334  0.773250  1.0
  B  B27  1  0.492228  0.400334  0.773250  1.0
  B  B28  1  0.475722  0.641796  0.809649  1.0
  B  B29  1  0.323610  0.241382  0.905838  1.0
  B  B30  1  0.298223  0.622516  0.966827  1.0
  B  B31  1  0.791121  0.622516  0.966827  1.0
  B  B32  1  0.115064  0.756008  0.974118  1.0
