# generated using pymatgen
data_TiTeAs
_symmetry_space_group_name_H-M   'P 1'
_cell_length_a   3.59860620
_cell_length_b   5.30343943
_cell_length_c   7.18995541
_cell_angle_alpha   111.64217921
_cell_angle_beta   104.49244432
_cell_angle_gamma   90.00000005
_symmetry_Int_Tables_number   1
_chemical_formula_structural   TiTeAs
_chemical_formula_sum   'Ti2 Te2 As2'
_cell_volume   122.83730246
_cell_formula_units_Z   2
loop_
 _symmetry_equiv_pos_site_id
 _symmetry_equiv_pos_as_xyz
  1  'x, y, z'
loop_
 _atom_site_type_symbol
 _atom_site_label
 _atom_site_symmetry_multiplicity
 _atom_site_fract_x
 _atom_site_fract_y
 _atom_site_fract_z
 _atom_site_occupancy
  Ti  Ti1  1  0.381778  0.881778  0.763557  1.0
  Ti  Ti2  1  0.618222  0.118222  0.236443  1.0
  Te  Te3  1  0.709481  0.709481  0.418963  1.0
  Te  Te4  1  0.290519  0.290519  0.581037  1.0
  As  As5  1  0.000000  0.748860  0.000000  1.0
  As  As6  1  0.000000  0.251140  0.000000  1.0
