# generated using pymatgen
data_Mn2Sb
_symmetry_space_group_name_H-M   'P 1'
_cell_length_a   4.52750698
_cell_length_b   4.52750698
_cell_length_c   5.49196393
_cell_angle_alpha   90.00000000
_cell_angle_beta   90.00000000
_cell_angle_gamma   120.00000000
_symmetry_Int_Tables_number   1
_chemical_formula_structural   Mn2Sb
_chemical_formula_sum   'Mn4 Sb2'
_cell_volume   97.49370276
_cell_formula_units_Z   2
loop_
 _symmetry_equiv_pos_site_id
 _symmetry_equiv_pos_as_xyz
  1  'x, y, z'
loop_
 _atom_site_type_symbol
 _atom_site_label
 _atom_site_symmetry_multiplicity
 _atom_site_fract_x
 _atom_site_fract_y
 _atom_site_fract_z
 _atom_site_occupancy
  Mn  Mn1  1  0.000000  0.000000  0.000000  1.0
  Mn  Mn2  1  0.000000  0.000000  0.500000  1.0
  Mn  Mn3  1  0.333333  0.666667  0.750000  1.0
  Mn  Mn4  1  0.666667  0.333333  0.250000  1.0
  Sb  Sb5  1  0.333333  0.666667  0.250000  1.0
  Sb  Sb6  1  0.666667  0.333333  0.750000  1.0
