# generated using pymatgen
data_Rb3TlF6
_symmetry_space_group_name_H-M   'P 1'
_cell_length_a   7.00006670
_cell_length_b   7.00006671
_cell_length_c   6.96736516
_cell_angle_alpha   120.15538260
_cell_angle_beta   120.15538263
_cell_angle_gamma   90.00000004
_symmetry_Int_Tables_number   1
_chemical_formula_structural   Rb3TlF6
_chemical_formula_sum   'Rb3 Tl1 F6'
_cell_volume   240.27307151
_cell_formula_units_Z   1
loop_
 _symmetry_equiv_pos_site_id
 _symmetry_equiv_pos_as_xyz
  1  'x, y, z'
loop_
 _atom_site_type_symbol
 _atom_site_label
 _atom_site_symmetry_multiplicity
 _atom_site_fract_x
 _atom_site_fract_y
 _atom_site_fract_z
 _atom_site_occupancy
  Rb  Rb1  1  0.750000  0.250000  0.500000  1.0
  Rb  Rb2  1  0.250000  0.750000  0.500000  1.0
  Rb  Rb3  1  0.500000  0.500000  0.000000  1.0
  Tl  Tl4  1  0.000000  0.000000  0.000000  1.0
  F  F5  1  0.690096  0.000000  0.000000  1.0
  F  F6  1  0.000000  0.690096  0.000000  1.0
  F  F7  1  0.000000  0.309904  0.000000  1.0
  F  F8  1  0.309904  0.000000  0.000000  1.0
  F  F9  1  0.232188  0.232188  0.464376  1.0
  F  F10  1  0.767812  0.767812  0.535624  1.0
