# generated using pymatgen
data_V2CrTe4
_symmetry_space_group_name_H-M   'P 1'
_cell_length_a   3.94668578
_cell_length_b   6.82702942
_cell_length_c   7.33319896
_cell_angle_alpha   115.46443187
_cell_angle_beta   105.61054868
_cell_angle_gamma   90.00000000
_symmetry_Int_Tables_number   1
_chemical_formula_structural   V2CrTe4
_chemical_formula_sum   'V2 Cr1 Te4'
_cell_volume   170.28367665
_cell_formula_units_Z   1
loop_
 _symmetry_equiv_pos_site_id
 _symmetry_equiv_pos_as_xyz
  1  'x, y, z'
loop_
 _atom_site_type_symbol
 _atom_site_label
 _atom_site_symmetry_multiplicity
 _atom_site_fract_x
 _atom_site_fract_y
 _atom_site_fract_z
 _atom_site_occupancy
  V  V1  1  0.257281  0.299655  0.514561  1.0
  V  V2  1  0.742719  0.700345  0.485439  1.0
  Cr  Cr3  1  0.000000  0.000000  0.000000  1.0
  Te  Te4  1  0.111152  0.452334  0.222304  1.0
  Te  Te5  1  0.888848  0.547666  0.777696  1.0
  Te  Te6  1  0.360321  0.018714  0.720641  1.0
  Te  Te7  1  0.639679  0.981286  0.279359  1.0
