# generated using pymatgen
data_Lu2(NiB2)3
_symmetry_space_group_name_H-M   'P 1'
_cell_length_a   3.43014637
_cell_length_b   5.73390747
_cell_length_c   5.73390747
_cell_angle_alpha   96.55117900
_cell_angle_beta   90.00000000
_cell_angle_gamma   90.00000000
_symmetry_Int_Tables_number   1
_chemical_formula_structural   Lu2(NiB2)3
_chemical_formula_sum   'Lu2 Ni3 B6'
_cell_volume   112.03892149
_cell_formula_units_Z   1
loop_
 _symmetry_equiv_pos_site_id
 _symmetry_equiv_pos_as_xyz
  1  'x, y, z'
loop_
 _atom_site_type_symbol
 _atom_site_label
 _atom_site_symmetry_multiplicity
 _atom_site_fract_x
 _atom_site_fract_y
 _atom_site_fract_z
 _atom_site_occupancy
  Lu  Lu1  1  0.000000  0.724599  0.275401  1.0
  Lu  Lu2  1  0.000000  0.275401  0.724599  1.0
  Ni  Ni3  1  0.000000  0.771313  0.771313  1.0
  Ni  Ni4  1  0.000000  0.228687  0.228687  1.0
  Ni  Ni5  1  0.500000  0.000000  0.000000  1.0
  B  B6  1  0.500000  0.611871  0.611871  1.0
  B  B7  1  0.500000  0.388129  0.388129  1.0
  B  B8  1  0.500000  0.916910  0.615603  1.0
  B  B9  1  0.500000  0.083090  0.384397  1.0
  B  B10  1  0.500000  0.615603  0.916910  1.0
  B  B11  1  0.500000  0.384397  0.083090  1.0
