# generated using pymatgen
data_MnCoO4
_symmetry_space_group_name_H-M   'P 1'
_cell_length_a   5.01597755
_cell_length_b   2.89448442
_cell_length_c   4.97481852
_cell_angle_alpha   90.00000746
_cell_angle_beta   70.32981628
_cell_angle_gamma   90.00000428
_symmetry_Int_Tables_number   1
_chemical_formula_structural   MnCoO4
_chemical_formula_sum   'Mn1 Co1 O4'
_cell_volume   68.01295345
_cell_formula_units_Z   1
loop_
 _symmetry_equiv_pos_site_id
 _symmetry_equiv_pos_as_xyz
  1  'x, y, z'
loop_
 _atom_site_type_symbol
 _atom_site_label
 _atom_site_symmetry_multiplicity
 _atom_site_fract_x
 _atom_site_fract_y
 _atom_site_fract_z
 _atom_site_occupancy
  Mn  Mn1  1  0.500000  0.500000  0.000000  1.0
  Co  Co2  1  0.500000  0.000000  0.500000  1.0
  O  O3  1  0.701608  0.000000  0.760947  1.0
  O  O4  1  0.700461  0.500000  0.272453  1.0
  O  O5  1  0.299539  0.500000  0.727547  1.0
  O  O6  1  0.298392  0.000000  0.239053  1.0
