# generated using pymatgen
data_Sc2FeSi2
_symmetry_space_group_name_H-M   'P 1'
_cell_length_a   3.98335765
_cell_length_b   5.32670433
_cell_length_c   8.51060660
_cell_angle_alpha   82.19363054
_cell_angle_beta   76.46594636
_cell_angle_gamma   68.04337843
_symmetry_Int_Tables_number   1
_chemical_formula_structural   Sc2FeSi2
_chemical_formula_sum   'Sc4 Fe2 Si4'
_cell_volume   162.59676441
_cell_formula_units_Z   2
loop_
 _symmetry_equiv_pos_site_id
 _symmetry_equiv_pos_as_xyz
  1  'x, y, z'
loop_
 _atom_site_type_symbol
 _atom_site_label
 _atom_site_symmetry_multiplicity
 _atom_site_fract_x
 _atom_site_fract_y
 _atom_site_fract_z
 _atom_site_occupancy
  Sc  Sc1  1  0.814956  0.262134  0.107952  1.0
  Sc  Sc2  1  0.000774  0.670657  0.327797  1.0
  Sc  Sc3  1  0.185044  0.737866  0.892048  1.0
  Sc  Sc4  1  0.999226  0.329343  0.672203  1.0
  Fe  Fe5  1  0.729376  0.914604  0.626643  1.0
  Fe  Fe6  1  0.270624  0.085396  0.373357  1.0
  Si  Si7  1  0.493114  0.139797  0.873974  1.0
  Si  Si8  1  0.353554  0.727762  0.565128  1.0
  Si  Si9  1  0.506886  0.860203  0.126026  1.0
  Si  Si10  1  0.646446  0.272238  0.434872  1.0
