# generated using pymatgen
data_K2PtS2
_symmetry_space_group_name_H-M   'P 1'
_cell_length_a   3.65681495
_cell_length_b   6.24802161
_cell_length_c   6.24802160
_cell_angle_alpha   69.82558131
_cell_angle_beta   72.98405489
_cell_angle_gamma   72.98405489
_symmetry_Int_Tables_number   1
_chemical_formula_structural   K2PtS2
_chemical_formula_sum   'K2 Pt1 S2'
_cell_volume   125.17274637
_cell_formula_units_Z   1
loop_
 _symmetry_equiv_pos_site_id
 _symmetry_equiv_pos_as_xyz
  1  'x, y, z'
loop_
 _atom_site_type_symbol
 _atom_site_label
 _atom_site_symmetry_multiplicity
 _atom_site_fract_x
 _atom_site_fract_y
 _atom_site_fract_z
 _atom_site_occupancy
  K  K1  1  0.805685  0.694315  0.694315  1.0
  K  K2  1  0.194315  0.305685  0.305685  1.0
  Pt  Pt3  1  0.000000  0.000000  0.000000  1.0
  S  S4  1  0.500000  0.785207  0.214793  1.0
  S  S5  1  0.500000  0.214793  0.785207  1.0
