# generated using pymatgen
data_WO3
_symmetry_space_group_name_H-M   'P 1'
_cell_length_a   7.50815639
_cell_length_b   7.50815590
_cell_length_c   3.86255331
_cell_angle_alpha   90.00000000
_cell_angle_beta   90.00000000
_cell_angle_gamma   120.00000221
_symmetry_Int_Tables_number   1
_chemical_formula_structural   WO3
_chemical_formula_sum   'W3 O9'
_cell_volume   188.56960893
_cell_formula_units_Z   3
loop_
 _symmetry_equiv_pos_site_id
 _symmetry_equiv_pos_as_xyz
  1  'x, y, z'
loop_
 _atom_site_type_symbol
 _atom_site_label
 _atom_site_symmetry_multiplicity
 _atom_site_fract_x
 _atom_site_fract_y
 _atom_site_fract_z
 _atom_site_occupancy
  W  W1  1  0.000000  0.500000  0.000000  1.0
  W  W2  1  0.500000  0.000000  0.000000  1.0
  W  W3  1  0.500000  0.500000  0.000000  1.0
  O  O4  1  0.786072  0.213928  0.000000  1.0
  O  O5  1  0.786072  0.572143  0.000000  1.0
  O  O6  1  0.213928  0.786072  0.000000  1.0
  O  O7  1  0.572143  0.786072  0.000000  1.0
  O  O8  1  0.500000  0.000000  0.500000  1.0
  O  O9  1  0.500000  0.500000  0.500000  1.0
  O  O10  1  0.000000  0.500000  0.500000  1.0
  O  O11  1  0.427857  0.213928  0.000000  1.0
  O  O12  1  0.213928  0.427857  0.000000  1.0
