# generated using pymatgen
data_MnBi
_symmetry_space_group_name_H-M   'P 1'
_cell_length_a   4.32004296
_cell_length_b   4.32004296
_cell_length_c   5.74501584
_cell_angle_alpha   90.00000000
_cell_angle_beta   90.00000000
_cell_angle_gamma   120.01088841
_symmetry_Int_Tables_number   1
_chemical_formula_structural   MnBi
_chemical_formula_sum   'Mn2 Bi2'
_cell_volume   92.84324957
_cell_formula_units_Z   2
loop_
 _symmetry_equiv_pos_site_id
 _symmetry_equiv_pos_as_xyz
  1  'x, y, z'
loop_
 _atom_site_type_symbol
 _atom_site_label
 _atom_site_symmetry_multiplicity
 _atom_site_fract_x
 _atom_site_fract_y
 _atom_site_fract_z
 _atom_site_occupancy
  Mn  Mn1  1  0.000000  0.000000  0.500000  1.0
  Mn  Mn2  1  0.000000  0.000000  0.000000  1.0
  Bi  Bi3  1  0.666788  0.333212  0.750000  1.0
  Bi  Bi4  1  0.333212  0.666788  0.250000  1.0
