# generated using pymatgen
data_AgSbO3
_symmetry_space_group_name_H-M   'P 1'
_cell_length_a   6.49332518
_cell_length_b   6.49332105
_cell_length_c   6.49333806
_cell_angle_alpha   49.30890500
_cell_angle_beta   49.30889888
_cell_angle_gamma   49.30896473
_symmetry_Int_Tables_number   1
_chemical_formula_structural   AgSbO3
_chemical_formula_sum   'Ag2 Sb2 O6'
_cell_volume   144.62499743
_cell_formula_units_Z   2
loop_
 _symmetry_equiv_pos_site_id
 _symmetry_equiv_pos_as_xyz
  1  'x, y, z'
loop_
 _atom_site_type_symbol
 _atom_site_label
 _atom_site_symmetry_multiplicity
 _atom_site_fract_x
 _atom_site_fract_y
 _atom_site_fract_z
 _atom_site_occupancy
  Ag  Ag1  1  0.361561  0.361561  0.361561  1.0
  Ag  Ag2  1  0.638439  0.638439  0.638439  1.0
  Sb  Sb3  1  0.162897  0.162896  0.162897  1.0
  Sb  Sb4  1  0.837103  0.837103  0.837103  1.0
  O  O5  1  0.814871  0.440560  0.044593  1.0
  O  O6  1  0.559440  0.955406  0.185129  1.0
  O  O7  1  0.955408  0.185130  0.559438  1.0
  O  O8  1  0.044592  0.814871  0.440561  1.0
  O  O9  1  0.440561  0.044594  0.814871  1.0
  O  O10  1  0.185129  0.559439  0.955407  1.0
