# generated using pymatgen
data_DyAg2
_symmetry_space_group_name_H-M   'P 1'
_cell_length_a   3.75736054
_cell_length_b   3.75736053
_cell_length_c   5.33226674
_cell_angle_alpha   110.62946687
_cell_angle_beta   110.62946678
_cell_angle_gamma   90.00000000
_symmetry_Int_Tables_number   1
_chemical_formula_structural   DyAg2
_chemical_formula_sum   'Dy1 Ag2'
_cell_volume   65.26954215
_cell_formula_units_Z   1
loop_
 _symmetry_equiv_pos_site_id
 _symmetry_equiv_pos_as_xyz
  1  'x, y, z'
loop_
 _atom_site_type_symbol
 _atom_site_label
 _atom_site_symmetry_multiplicity
 _atom_site_fract_x
 _atom_site_fract_y
 _atom_site_fract_z
 _atom_site_occupancy
  Dy  Dy1  1  0.000000  0.000000  0.000000  1.0
  Ag  Ag2  1  0.669255  0.669255  0.338511  1.0
  Ag  Ag3  1  0.330745  0.330745  0.661489  1.0
