# generated using pymatgen
data_TiSi
_symmetry_space_group_name_H-M   'P 1'
_cell_length_a   3.63235684
_cell_length_b   4.71728190
_cell_length_c   4.71728190
_cell_angle_alpha   53.34725080
_cell_angle_beta   67.35593219
_cell_angle_gamma   67.35593219
_symmetry_Int_Tables_number   1
_chemical_formula_structural   TiSi
_chemical_formula_sum   'Ti2 Si2'
_cell_volume   58.51946471
_cell_formula_units_Z   2
loop_
 _symmetry_equiv_pos_site_id
 _symmetry_equiv_pos_as_xyz
  1  'x, y, z'
loop_
 _atom_site_type_symbol
 _atom_site_label
 _atom_site_symmetry_multiplicity
 _atom_site_fract_x
 _atom_site_fract_y
 _atom_site_fract_z
 _atom_site_occupancy
  Ti  Ti1  1  0.500000  0.453624  0.546377  1.0
  Ti  Ti2  1  0.000000  0.953208  0.046792  1.0
  Si  Si3  1  0.749980  0.695104  0.804937  1.0
  Si  Si4  1  0.250020  0.195063  0.304896  1.0
