# generated using pymatgen
data_Ti2MnRh
_symmetry_space_group_name_H-M   'P 1'
_cell_length_a   4.30203608
_cell_length_b   4.30203388
_cell_length_c   4.30203168
_cell_angle_alpha   60.00001452
_cell_angle_beta   59.99992192
_cell_angle_gamma   59.99997613
_symmetry_Int_Tables_number   1
_chemical_formula_structural   Ti2MnRh
_chemical_formula_sum   'Ti2 Mn1 Rh1'
_cell_volume   56.29971470
_cell_formula_units_Z   1
loop_
 _symmetry_equiv_pos_site_id
 _symmetry_equiv_pos_as_xyz
  1  'x, y, z'
loop_
 _atom_site_type_symbol
 _atom_site_label
 _atom_site_symmetry_multiplicity
 _atom_site_fract_x
 _atom_site_fract_y
 _atom_site_fract_z
 _atom_site_occupancy
  Ti  Ti1  1  0.000000  0.000000  0.000000  1.0
  Ti  Ti2  1  0.500000  0.500000  0.500000  1.0
  Mn  Mn3  1  0.249999  0.249999  0.249999  1.0
  Rh  Rh4  1  0.749999  0.749999  0.749999  1.0
