# generated using pymatgen
data_YbSiAu
_symmetry_space_group_name_H-M   'P 1'
_cell_length_a   4.46323912
_cell_length_b   5.65179036
_cell_length_c   5.65179036
_cell_angle_alpha   76.79968574
_cell_angle_beta   66.74326887
_cell_angle_gamma   66.74326886
_symmetry_Int_Tables_number   1
_chemical_formula_structural   YbSiAu
_chemical_formula_sum   'Yb2 Si2 Au2'
_cell_volume   119.89648931
_cell_formula_units_Z   2
loop_
 _symmetry_equiv_pos_site_id
 _symmetry_equiv_pos_as_xyz
  1  'x, y, z'
loop_
 _atom_site_type_symbol
 _atom_site_label
 _atom_site_symmetry_multiplicity
 _atom_site_fract_x
 _atom_site_fract_y
 _atom_site_fract_z
 _atom_site_occupancy
  Yb  Yb1  1  0.293398  0.206602  0.206602  1.0
  Yb  Yb2  1  0.363938  0.636062  0.636062  1.0
  Si  Si3  1  0.660081  0.659494  0.020344  1.0
  Si  Si4  1  0.660081  0.020344  0.659494  1.0
  Au  Au5  1  0.992151  0.782264  0.233434  1.0
  Au  Au6  1  0.992151  0.233434  0.782264  1.0
