# generated using pymatgen
data_Be5Fe
_symmetry_space_group_name_H-M   'P 1'
_cell_length_a   4.12561761
_cell_length_b   4.12561761
_cell_length_c   4.12561761
_cell_angle_alpha   60.00000000
_cell_angle_beta   60.00000000
_cell_angle_gamma   60.00000000
_symmetry_Int_Tables_number   1
_chemical_formula_structural   Be5Fe
_chemical_formula_sum   'Be5 Fe1'
_cell_volume   49.65373461
_cell_formula_units_Z   1
loop_
 _symmetry_equiv_pos_site_id
 _symmetry_equiv_pos_as_xyz
  1  'x, y, z'
loop_
 _atom_site_type_symbol
 _atom_site_label
 _atom_site_symmetry_multiplicity
 _atom_site_fract_x
 _atom_site_fract_y
 _atom_site_fract_z
 _atom_site_occupancy
  Be  Be1  1  0.373981  0.373981  0.373981  1.0
  Be  Be2  1  0.878056  0.373981  0.373981  1.0
  Be  Be3  1  0.373981  0.878056  0.373981  1.0
  Be  Be4  1  0.373981  0.373981  0.878056  1.0
  Be  Be5  1  0.750000  0.750000  0.750000  1.0
  Fe  Fe6  1  0.000000  0.000000  0.000000  1.0
