# generated using pymatgen
data_CaZn
_symmetry_space_group_name_H-M   'P 1'
_cell_length_a   6.17742977
_cell_length_b   6.17742977
_cell_length_c   6.17742977
_cell_angle_alpha   90.00000000
_cell_angle_beta   90.00000000
_cell_angle_gamma   90.00000000
_symmetry_Int_Tables_number   1
_chemical_formula_structural   CaZn
_chemical_formula_sum   'Ca4 Zn4'
_cell_volume   235.73466470
_cell_formula_units_Z   4
loop_
 _symmetry_equiv_pos_site_id
 _symmetry_equiv_pos_as_xyz
  1  'x, y, z'
loop_
 _atom_site_type_symbol
 _atom_site_label
 _atom_site_symmetry_multiplicity
 _atom_site_fract_x
 _atom_site_fract_y
 _atom_site_fract_z
 _atom_site_occupancy
  Ca  Ca1  1  0.000000  0.000000  0.000000  1.0
  Ca  Ca2  1  0.000000  0.500000  0.500000  1.0
  Ca  Ca3  1  0.500000  0.000000  0.500000  1.0
  Ca  Ca4  1  0.500000  0.500000  0.000000  1.0
  Zn  Zn5  1  0.500000  0.000000  0.000000  1.0
  Zn  Zn6  1  0.500000  0.500000  0.500000  1.0
  Zn  Zn7  1  0.000000  0.000000  0.500000  1.0
  Zn  Zn8  1  0.000000  0.500000  0.000000  1.0
