# generated using pymatgen
data_SmNi2
_symmetry_space_group_name_H-M   'P 1'
_cell_length_a   5.12245895
_cell_length_b   5.12245894
_cell_length_c   5.12245894
_cell_angle_alpha   60.00000001
_cell_angle_beta   60.00000005
_cell_angle_gamma   59.99999996
_symmetry_Int_Tables_number   1
_chemical_formula_structural   SmNi2
_chemical_formula_sum   'Sm2 Ni4'
_cell_volume   95.04307104
_cell_formula_units_Z   2
loop_
 _symmetry_equiv_pos_site_id
 _symmetry_equiv_pos_as_xyz
  1  'x, y, z'
loop_
 _atom_site_type_symbol
 _atom_site_label
 _atom_site_symmetry_multiplicity
 _atom_site_fract_x
 _atom_site_fract_y
 _atom_site_fract_z
 _atom_site_occupancy
  Sm  Sm1  1  0.875000  0.875000  0.875000  1.0
  Sm  Sm2  1  0.125000  0.125000  0.125000  1.0
  Ni  Ni3  1  0.500000  0.500000  0.500000  1.0
  Ni  Ni4  1  0.500000  0.500000  0.000000  1.0
  Ni  Ni5  1  0.000000  0.500000  0.500000  1.0
  Ni  Ni6  1  0.500000  0.000000  0.500000  1.0
