# generated using pymatgen
data_ErAu2
_symmetry_space_group_name_H-M   'P 1'
_cell_length_a   3.72519004
_cell_length_b   3.72519003
_cell_length_c   5.22875971
_cell_angle_alpha   110.86830699
_cell_angle_beta   110.86830702
_cell_angle_gamma   90.00000000
_symmetry_Int_Tables_number   1
_chemical_formula_structural   ErAu2
_chemical_formula_sum   'Er1 Au2'
_cell_volume   62.67970337
_cell_formula_units_Z   1
loop_
 _symmetry_equiv_pos_site_id
 _symmetry_equiv_pos_as_xyz
  1  'x, y, z'
loop_
 _atom_site_type_symbol
 _atom_site_label
 _atom_site_symmetry_multiplicity
 _atom_site_fract_x
 _atom_site_fract_y
 _atom_site_fract_z
 _atom_site_occupancy
  Er  Er1  1  0.000000  0.000000  0.000000  1.0
  Au  Au2  1  0.664295  0.664295  0.328591  1.0
  Au  Au3  1  0.335705  0.335705  0.671409  1.0
