# generated using pymatgen
data_Sr(Si3N4)2
_symmetry_space_group_name_H-M   'P 1'
_cell_length_a   4.84295952
_cell_length_b   6.59228950
_cell_length_c   6.59228862
_cell_angle_alpha   73.99394618
_cell_angle_beta   68.44957726
_cell_angle_gamma   68.44957355
_symmetry_Int_Tables_number   1
_chemical_formula_structural   Sr(Si3N4)2
_chemical_formula_sum   'Sr1 Si6 N8'
_cell_volume   179.64137619
_cell_formula_units_Z   1
loop_
 _symmetry_equiv_pos_site_id
 _symmetry_equiv_pos_as_xyz
  1  'x, y, z'
loop_
 _atom_site_type_symbol
 _atom_site_label
 _atom_site_symmetry_multiplicity
 _atom_site_fract_x
 _atom_site_fract_y
 _atom_site_fract_z
 _atom_site_occupancy
  Sr  Sr1  1  0.342810  0.500000  0.500000  1.0
  Si  Si2  1  0.012135  0.043023  0.636417  1.0
  Si  Si3  1  0.691577  0.363583  0.956977  1.0
  Si  Si4  1  0.012135  0.636417  0.043023  1.0
  Si  Si5  1  0.691577  0.956977  0.363583  1.0
  Si  Si6  1  0.486859  0.872983  0.872983  1.0
  Si  Si7  1  0.232825  0.127017  0.127017  1.0
  N  N8  1  0.784606  0.291665  0.708335  1.0
  N  N9  1  0.403837  0.984559  0.620476  1.0
  N  N10  1  0.889183  0.816144  0.816144  1.0
  N  N11  1  0.008872  0.015441  0.379524  1.0
  N  N12  1  0.784606  0.708335  0.291665  1.0
  N  N13  1  0.403837  0.620476  0.984559  1.0
  N  N14  1  0.008872  0.379524  0.015441  1.0
  N  N15  1  0.521470  0.183856  0.183856  1.0
