# generated using pymatgen
data_HfInRh2
_symmetry_space_group_name_H-M   'P 1'
_cell_length_a   4.59351123
_cell_length_b   4.59328627
_cell_length_c   4.59356600
_cell_angle_alpha   59.98375366
_cell_angle_beta   59.99325809
_cell_angle_gamma   59.97973883
_symmetry_Int_Tables_number   1
_chemical_formula_structural   HfInRh2
_chemical_formula_sum   'Hf1 In1 Rh2'
_cell_volume   68.51114995
_cell_formula_units_Z   1
loop_
 _symmetry_equiv_pos_site_id
 _symmetry_equiv_pos_as_xyz
  1  'x, y, z'
loop_
 _atom_site_type_symbol
 _atom_site_label
 _atom_site_symmetry_multiplicity
 _atom_site_fract_x
 _atom_site_fract_y
 _atom_site_fract_z
 _atom_site_occupancy
  Hf  Hf1  1  0.249992  0.250004  0.250002  1.0
  In  In2  1  0.750001  0.749998  0.750002  1.0
  Rh  Rh3  1  0.999988  0.000003  0.999975  1.0
  Rh  Rh4  1  0.500018  0.499993  0.500019  1.0
