# generated using pymatgen
data_Y2ZnIn
_symmetry_space_group_name_H-M   'P 1'
_cell_length_a   5.21340713
_cell_length_b   5.21340713
_cell_length_c   5.21340713
_cell_angle_alpha   60.03686375
_cell_angle_beta   60.03686375
_cell_angle_gamma   60.03686375
_symmetry_Int_Tables_number   1
_chemical_formula_structural   Y2ZnIn
_chemical_formula_sum   'Y2 Zn1 In1'
_cell_volume   100.27961808
_cell_formula_units_Z   1
loop_
 _symmetry_equiv_pos_site_id
 _symmetry_equiv_pos_as_xyz
  1  'x, y, z'
loop_
 _atom_site_type_symbol
 _atom_site_label
 _atom_site_symmetry_multiplicity
 _atom_site_fract_x
 _atom_site_fract_y
 _atom_site_fract_z
 _atom_site_occupancy
  Y  Y1  1  0.999983  0.999983  0.999983  1.0
  Y  Y2  1  0.500019  0.500019  0.500019  1.0
  Zn  Zn3  1  0.749996  0.749996  0.749996  1.0
  In  In4  1  0.250002  0.250002  0.250002  1.0
