# generated using pymatgen
data_Pr3(CuSn)4
_symmetry_space_group_name_H-M   'P 1'
_cell_length_a   4.61598069
_cell_length_b   7.05891881
_cell_length_c   8.66471650
_cell_angle_alpha   114.03765718
_cell_angle_beta   105.44816376
_cell_angle_gamma   90.00000000
_symmetry_Int_Tables_number   1
_chemical_formula_structural   Pr3(CuSn)4
_chemical_formula_sum   'Pr3 Cu4 Sn4'
_cell_volume   246.63488807
_cell_formula_units_Z   1
loop_
 _symmetry_equiv_pos_site_id
 _symmetry_equiv_pos_as_xyz
  1  'x, y, z'
loop_
 _atom_site_type_symbol
 _atom_site_label
 _atom_site_symmetry_multiplicity
 _atom_site_fract_x
 _atom_site_fract_y
 _atom_site_fract_z
 _atom_site_occupancy
  Pr  Pr1  1  0.000000  0.500000  0.000000  1.0
  Pr  Pr2  1  0.132927  0.132927  0.265854  1.0
  Pr  Pr3  1  0.867073  0.867074  0.734146  1.0
  Cu  Cu4  1  0.667974  0.485088  0.335947  1.0
  Cu  Cu5  1  0.667974  0.850860  0.335947  1.0
  Cu  Cu6  1  0.332026  0.149140  0.664053  1.0
  Cu  Cu7  1  0.332026  0.514913  0.664053  1.0
  Sn  Sn8  1  0.500000  0.200290  0.000000  1.0
  Sn  Sn9  1  0.500000  0.799711  0.000000  1.0
  Sn  Sn10  1  0.216690  0.716691  0.433381  1.0
  Sn  Sn11  1  0.783310  0.283310  0.566619  1.0
