# generated using pymatgen
data_ScNbTc2
_symmetry_space_group_name_H-M   'P 1'
_cell_length_a   4.54418934
_cell_length_b   4.54417944
_cell_length_c   4.54417785
_cell_angle_alpha   59.99993700
_cell_angle_beta   60.00006733
_cell_angle_gamma   60.00003912
_symmetry_Int_Tables_number   1
_chemical_formula_structural   ScNbTc2
_chemical_formula_sum   'Sc1 Nb1 Tc2'
_cell_volume   66.35174611
_cell_formula_units_Z   1
loop_
 _symmetry_equiv_pos_site_id
 _symmetry_equiv_pos_as_xyz
  1  'x, y, z'
loop_
 _atom_site_type_symbol
 _atom_site_label
 _atom_site_symmetry_multiplicity
 _atom_site_fract_x
 _atom_site_fract_y
 _atom_site_fract_z
 _atom_site_occupancy
  Sc  Sc1  1  0.750002  0.750000  0.750001  1.0
  Nb  Nb2  1  0.249999  0.250000  0.250000  1.0
  Tc  Tc3  1  0.999999  0.000000  0.999999  1.0
  Tc  Tc4  1  0.499999  0.500000  0.500000  1.0
