# generated using pymatgen
data_Li2MgBr4
_symmetry_space_group_name_H-M   'P 1'
_cell_length_a   3.89053843
_cell_length_b   6.81632790
_cell_length_c   6.81632789
_cell_angle_alpha   109.57647227
_cell_angle_beta   90.00000000
_cell_angle_gamma   90.00000000
_symmetry_Int_Tables_number   1
_chemical_formula_structural   Li2MgBr4
_chemical_formula_sum   'Li2 Mg1 Br4'
_cell_volume   170.31445471
_cell_formula_units_Z   1
loop_
 _symmetry_equiv_pos_site_id
 _symmetry_equiv_pos_as_xyz
  1  'x, y, z'
loop_
 _atom_site_type_symbol
 _atom_site_label
 _atom_site_symmetry_multiplicity
 _atom_site_fract_x
 _atom_site_fract_y
 _atom_site_fract_z
 _atom_site_occupancy
  Li  Li1  1  0.500000  0.500000  0.000000  1.0
  Li  Li2  1  0.500000  0.000000  0.500000  1.0
  Mg  Mg3  1  0.000000  0.000000  0.000000  1.0
  Br  Br4  1  0.500000  0.237916  0.237916  1.0
  Br  Br5  1  0.500000  0.762085  0.762085  1.0
  Br  Br6  1  0.000000  0.241370  0.758630  1.0
  Br  Br7  1  0.000000  0.758630  0.241370  1.0
