# generated using pymatgen
data_TmCuPb
_symmetry_space_group_name_H-M   'P 1'
_cell_length_a   4.60733407
_cell_length_b   4.60733349
_cell_length_c   7.32402586
_cell_angle_alpha   90.00000000
_cell_angle_beta   90.00000000
_cell_angle_gamma   119.99999801
_symmetry_Int_Tables_number   1
_chemical_formula_structural   TmCuPb
_chemical_formula_sum   'Tm2 Cu2 Pb2'
_cell_volume   134.64178527
_cell_formula_units_Z   2
loop_
 _symmetry_equiv_pos_site_id
 _symmetry_equiv_pos_as_xyz
  1  'x, y, z'
loop_
 _atom_site_type_symbol
 _atom_site_label
 _atom_site_symmetry_multiplicity
 _atom_site_fract_x
 _atom_site_fract_y
 _atom_site_fract_z
 _atom_site_occupancy
  Tm  Tm1  1  0.000000  0.000000  0.997392  1.0
  Tm  Tm2  1  0.000000  0.000000  0.497392  1.0
  Cu  Cu3  1  0.666667  0.333333  0.323191  1.0
  Cu  Cu4  1  0.333333  0.666667  0.823191  1.0
  Pb  Pb5  1  0.666667  0.333333  0.725617  1.0
  Pb  Pb6  1  0.333333  0.666667  0.225617  1.0
