# generated using pymatgen
data_LaTaO4
_symmetry_space_group_name_H-M   'P 1'
_cell_length_a   3.97329108
_cell_length_b   5.66807118
_cell_length_c   7.75278229
_cell_angle_alpha   90.00000000
_cell_angle_beta   104.84762857
_cell_angle_gamma   90.00000000
_symmetry_Int_Tables_number   1
_chemical_formula_structural   LaTaO4
_chemical_formula_sum   'La2 Ta2 O8'
_cell_volume   168.76985160
_cell_formula_units_Z   2
loop_
 _symmetry_equiv_pos_site_id
 _symmetry_equiv_pos_as_xyz
  1  'x, y, z'
loop_
 _atom_site_type_symbol
 _atom_site_label
 _atom_site_symmetry_multiplicity
 _atom_site_fract_x
 _atom_site_fract_y
 _atom_site_fract_z
 _atom_site_occupancy
  La  La1  1  0.824482  0.167792  0.648963  1.0
  La  La2  1  0.175518  0.667792  0.351037  1.0
  Ta  Ta3  1  0.584628  0.216700  0.169255  1.0
  Ta  Ta4  1  0.415372  0.716700  0.830745  1.0
  O  O5  1  0.911470  0.751693  0.822940  1.0
  O  O6  1  0.088530  0.251693  0.177060  1.0
  O  O7  1  0.471288  0.055968  0.942576  1.0
  O  O8  1  0.528712  0.555968  0.057424  1.0
  O  O9  1  0.698597  0.425748  0.397193  1.0
  O  O10  1  0.301403  0.925748  0.602807  1.0
  O  O11  1  0.663598  0.948699  0.327195  1.0
  O  O12  1  0.336402  0.448699  0.672805  1.0
