# generated using pymatgen
data_LiFe(SiO3)2
_symmetry_space_group_name_H-M   'P 1'
_cell_length_a   5.38147746
_cell_length_b   5.37205491
_cell_length_c   5.64024212
_cell_angle_alpha   89.99816122
_cell_angle_beta   90.00207479
_cell_angle_gamma   119.95064041
_symmetry_Int_Tables_number   1
_chemical_formula_structural   LiFe(SiO3)2
_chemical_formula_sum   'Li1 Fe1 Si2 O6'
_cell_volume   141.28177485
_cell_formula_units_Z   1
loop_
 _symmetry_equiv_pos_site_id
 _symmetry_equiv_pos_as_xyz
  1  'x, y, z'
loop_
 _atom_site_type_symbol
 _atom_site_label
 _atom_site_symmetry_multiplicity
 _atom_site_fract_x
 _atom_site_fract_y
 _atom_site_fract_z
 _atom_site_occupancy
  Li  Li1  1  0.999992  0.999978  0.666770  1.0
  Fe  Fe2  1  0.000032  0.499984  0.666537  1.0
  Si  Si3  1  0.500009  0.500003  0.330169  1.0
  Si  Si4  1  0.500014  0.000015  0.003221  1.0
  O  O5  1  0.212136  0.844930  0.837739  1.0
  O  O6  1  0.212136  0.367094  0.495587  1.0
  O  O7  1  0.518059  0.759081  0.166685  1.0
  O  O8  1  0.481949  0.240963  0.166636  1.0
  O  O9  1  0.787904  0.632884  0.495583  1.0
  O  O10  1  0.787876  0.155066  0.837739  1.0
