# generated using pymatgen
data_K2S3
_symmetry_space_group_name_H-M   'P 1'
_cell_length_a   6.29597711
_cell_length_b   6.29597711
_cell_length_c   7.58762730
_cell_angle_alpha   90.00000000
_cell_angle_beta   90.00000000
_cell_angle_gamma   108.64218017
_symmetry_Int_Tables_number   1
_chemical_formula_structural   K2S3
_chemical_formula_sum   'K4 S6'
_cell_volume   284.98813002
_cell_formula_units_Z   2
loop_
 _symmetry_equiv_pos_site_id
 _symmetry_equiv_pos_as_xyz
  1  'x, y, z'
loop_
 _atom_site_type_symbol
 _atom_site_label
 _atom_site_symmetry_multiplicity
 _atom_site_fract_x
 _atom_site_fract_y
 _atom_site_fract_z
 _atom_site_occupancy
  K  K1  1  0.417481  0.582519  0.657021  1.0
  K  K2  1  0.582519  0.417481  0.157021  1.0
  K  K3  1  0.894319  0.105681  0.386944  1.0
  K  K4  1  0.105681  0.894319  0.886944  1.0
  S  S5  1  0.387109  0.072638  0.500384  1.0
  S  S6  1  0.612891  0.927362  0.000384  1.0
  S  S7  1  0.927362  0.612891  0.500384  1.0
  S  S8  1  0.072638  0.387109  0.000384  1.0
  S  S9  1  0.800190  0.199810  0.845966  1.0
  S  S10  1  0.199810  0.800190  0.345966  1.0
