# generated using pymatgen
data_LiBr
_symmetry_space_group_name_H-M   'P 1'
_cell_length_a   4.18817511
_cell_length_b   4.18817511
_cell_length_c   6.80826051
_cell_angle_alpha   90.00000000
_cell_angle_beta   90.00000000
_cell_angle_gamma   119.99996726
_symmetry_Int_Tables_number   1
_chemical_formula_structural   LiBr
_chemical_formula_sum   'Li2 Br2'
_cell_volume   103.42287423
_cell_formula_units_Z   2
loop_
 _symmetry_equiv_pos_site_id
 _symmetry_equiv_pos_as_xyz
  1  'x, y, z'
loop_
 _atom_site_type_symbol
 _atom_site_label
 _atom_site_symmetry_multiplicity
 _atom_site_fract_x
 _atom_site_fract_y
 _atom_site_fract_z
 _atom_site_occupancy
  Li  Li1  1  0.000000  0.000000  0.375497  1.0
  Li  Li2  1  0.333332  0.666665  0.875497  1.0
  Br  Br3  1  0.000000  0.000000  0.999501  1.0
  Br  Br4  1  0.333332  0.666665  0.499501  1.0
