# generated using pymatgen
data_Sn(HgSe2)2
_symmetry_space_group_name_H-M   'P 1'
_cell_length_a   5.93651946
_cell_length_b   5.93651945
_cell_length_c   7.32020593
_cell_angle_alpha   113.92174621
_cell_angle_beta   113.92174621
_cell_angle_gamma   90.00000006
_symmetry_Int_Tables_number   1
_chemical_formula_structural   Sn(HgSe2)2
_chemical_formula_sum   'Sn1 Hg2 Se4'
_cell_volume   211.34865817
_cell_formula_units_Z   1
loop_
 _symmetry_equiv_pos_site_id
 _symmetry_equiv_pos_as_xyz
  1  'x, y, z'
loop_
 _atom_site_type_symbol
 _atom_site_label
 _atom_site_symmetry_multiplicity
 _atom_site_fract_x
 _atom_site_fract_y
 _atom_site_fract_z
 _atom_site_occupancy
  Sn  Sn1  1  0.250000  0.750000  0.500000  1.0
  Hg  Hg2  1  0.500000  0.500000  0.000000  1.0
  Hg  Hg3  1  0.750000  0.250000  0.500000  1.0
  Se  Se4  1  0.905766  0.345734  0.230648  1.0
  Se  Se5  1  0.115086  0.094234  0.769352  1.0
  Se  Se6  1  0.654266  0.675118  0.769352  1.0
  Se  Se7  1  0.324882  0.884914  0.230648  1.0
