# generated using pymatgen
data_Ca2Co2O5
_symmetry_space_group_name_H-M   'P 1'
_cell_length_a   3.74960855
_cell_length_b   5.42782998
_cell_length_c   10.27633252
_cell_angle_alpha   89.99393366
_cell_angle_beta   90.00004816
_cell_angle_gamma   90.00000145
_symmetry_Int_Tables_number   1
_chemical_formula_structural   Ca2Co2O5
_chemical_formula_sum   'Ca4 Co4 O10'
_cell_volume   209.14636097
_cell_formula_units_Z   2
loop_
 _symmetry_equiv_pos_site_id
 _symmetry_equiv_pos_as_xyz
  1  'x, y, z'
loop_
 _atom_site_type_symbol
 _atom_site_label
 _atom_site_symmetry_multiplicity
 _atom_site_fract_x
 _atom_site_fract_y
 _atom_site_fract_z
 _atom_site_occupancy
  Ca  Ca1  1  0.500002  0.192250  0.868544  1.0
  Ca  Ca2  1  0.500000  0.807683  0.131426  1.0
  Ca  Ca3  1  0.500000  0.692145  0.631503  1.0
  Ca  Ca4  1  0.500000  0.307806  0.368499  1.0
  Co  Co5  1  0.000000  0.222351  0.622720  1.0
  Co  Co6  1  0.000003  0.777635  0.377303  1.0
  Co  Co7  1  0.999999  0.277630  0.122704  1.0
  Co  Co8  1  0.999999  0.722331  0.877277  1.0
  O  O9  1  0.000000  0.499979  0.499982  1.0
  O  O10  1  0.000001  0.078653  0.289628  1.0
  O  O11  1  0.000000  0.578727  0.210365  1.0
  O  O12  1  0.999999  0.421381  0.789637  1.0
  O  O13  1  0.500000  0.287674  0.105175  1.0
  O  O14  1  0.500000  0.712339  0.894809  1.0
  O  O15  1  0.000001  0.921358  0.710402  1.0
  O  O16  1  0.499999  0.212458  0.605193  1.0
  O  O17  1  0.000002  0.999952  0.999961  1.0
  O  O18  1  0.500002  0.787646  0.394873  1.0
