# generated using pymatgen
data_Cd(GaTe2)2
_symmetry_space_group_name_H-M   'P 1'
_cell_length_a   6.27269183
_cell_length_b   6.27269182
_cell_length_c   7.46717636
_cell_angle_alpha   114.83570210
_cell_angle_beta   114.83570222
_cell_angle_gamma   90.00000004
_symmetry_Int_Tables_number   1
_chemical_formula_structural   Cd(GaTe2)2
_chemical_formula_sum   'Cd1 Ga2 Te4'
_cell_volume   236.35979966
_cell_formula_units_Z   1
loop_
 _symmetry_equiv_pos_site_id
 _symmetry_equiv_pos_as_xyz
  1  'x, y, z'
loop_
 _atom_site_type_symbol
 _atom_site_label
 _atom_site_symmetry_multiplicity
 _atom_site_fract_x
 _atom_site_fract_y
 _atom_site_fract_z
 _atom_site_occupancy
  Cd  Cd1  1  0.000000  0.000000  0.000000  1.0
  Ga  Ga2  1  0.250000  0.750000  0.500000  1.0
  Ga  Ga3  1  0.500000  0.500000  0.000000  1.0
  Te  Te4  1  0.413038  0.391181  0.276185  1.0
  Te  Te5  1  0.114996  0.586962  0.723815  1.0
  Te  Te6  1  0.608819  0.136854  0.723815  1.0
  Te  Te7  1  0.863146  0.885004  0.276185  1.0
