# generated using pymatgen
data_BeF2
_symmetry_space_group_name_H-M   'P 1'
_cell_length_a   4.80803775
_cell_length_b   4.80803774
_cell_length_c   5.26246652
_cell_angle_alpha   90.00000000
_cell_angle_beta   90.00000000
_cell_angle_gamma   119.99999997
_symmetry_Int_Tables_number   1
_chemical_formula_structural   BeF2
_chemical_formula_sum   'Be3 F6'
_cell_volume   105.35513658
_cell_formula_units_Z   3
loop_
 _symmetry_equiv_pos_site_id
 _symmetry_equiv_pos_as_xyz
  1  'x, y, z'
loop_
 _atom_site_type_symbol
 _atom_site_label
 _atom_site_symmetry_multiplicity
 _atom_site_fract_x
 _atom_site_fract_y
 _atom_site_fract_z
 _atom_site_occupancy
  Be  Be1  1  0.471623  0.000000  0.333333  1.0
  Be  Be2  1  0.000000  0.471623  0.666667  1.0
  Be  Be3  1  0.528377  0.528377  0.000000  1.0
  F  F4  1  0.416450  0.264261  0.210832  1.0
  F  F5  1  0.735739  0.152189  0.544165  1.0
  F  F6  1  0.847811  0.583550  0.877499  1.0
  F  F7  1  0.152189  0.735739  0.455835  1.0
  F  F8  1  0.583550  0.847811  0.122501  1.0
  F  F9  1  0.264261  0.416450  0.789168  1.0
