# generated using pymatgen
data_BaZrN2
_symmetry_space_group_name_H-M   'P 1'
_cell_length_a   4.20427845
_cell_length_b   4.20427845
_cell_length_c   8.48689969
_cell_angle_alpha   90.00000000
_cell_angle_beta   90.00000000
_cell_angle_gamma   90.00000000
_symmetry_Int_Tables_number   1
_chemical_formula_structural   BaZrN2
_chemical_formula_sum   'Ba2 Zr2 N4'
_cell_volume   150.01407640
_cell_formula_units_Z   2
loop_
 _symmetry_equiv_pos_site_id
 _symmetry_equiv_pos_as_xyz
  1  'x, y, z'
loop_
 _atom_site_type_symbol
 _atom_site_label
 _atom_site_symmetry_multiplicity
 _atom_site_fract_x
 _atom_site_fract_y
 _atom_site_fract_z
 _atom_site_occupancy
  Ba  Ba1  1  0.750000  0.750000  0.152583  1.0
  Ba  Ba2  1  0.250000  0.250000  0.847417  1.0
  Zr  Zr3  1  0.250000  0.250000  0.412862  1.0
  Zr  Zr4  1  0.750000  0.750000  0.587138  1.0
  N  N5  1  0.750000  0.750000  0.824512  1.0
  N  N6  1  0.250000  0.250000  0.175488  1.0
  N  N7  1  0.750000  0.250000  0.500000  1.0
  N  N8  1  0.250000  0.750000  0.500000  1.0
