# generated using pymatgen
data_Zn(InSe2)2
_symmetry_space_group_name_H-M   'P 1'
_cell_length_a   5.88086734
_cell_length_b   5.88086734
_cell_length_c   7.10016627
_cell_angle_alpha   114.41620111
_cell_angle_beta   114.41620111
_cell_angle_gamma   90.09617559
_symmetry_Int_Tables_number   1
_chemical_formula_structural   Zn(InSe2)2
_chemical_formula_sum   'Zn1 In2 Se4'
_cell_volume   199.14116526
_cell_formula_units_Z   1
loop_
 _symmetry_equiv_pos_site_id
 _symmetry_equiv_pos_as_xyz
  1  'x, y, z'
loop_
 _atom_site_type_symbol
 _atom_site_label
 _atom_site_symmetry_multiplicity
 _atom_site_fract_x
 _atom_site_fract_y
 _atom_site_fract_z
 _atom_site_occupancy
  Zn  Zn1  1  0.002162  0.002162  0.000574  1.0
  In  In2  1  0.249792  0.748437  0.500270  1.0
  In  In3  1  0.748437  0.249792  0.500270  1.0
  Se  Se4  1  0.151987  0.151987  0.781117  1.0
  Se  Se5  1  0.368223  0.847337  0.217064  1.0
  Se  Se6  1  0.632062  0.632062  0.783643  1.0
  Se  Se7  1  0.847337  0.368223  0.217064  1.0
