# generated using pymatgen
data_Ca2Fe2O5
_symmetry_space_group_name_H-M   'P 1'
_cell_length_a   3.93576819
_cell_length_b   5.46231891
_cell_length_c   10.49044923
_cell_angle_alpha   89.99576594
_cell_angle_beta   90.00016128
_cell_angle_gamma   90.00008024
_symmetry_Int_Tables_number   1
_chemical_formula_structural   Ca2Fe2O5
_chemical_formula_sum   'Ca4 Fe4 O10'
_cell_volume   225.52809351
_cell_formula_units_Z   2
loop_
 _symmetry_equiv_pos_site_id
 _symmetry_equiv_pos_as_xyz
  1  'x, y, z'
loop_
 _atom_site_type_symbol
 _atom_site_label
 _atom_site_symmetry_multiplicity
 _atom_site_fract_x
 _atom_site_fract_y
 _atom_site_fract_z
 _atom_site_occupancy
  Ca  Ca1  1  0.500003  0.221558  0.884603  1.0
  Ca  Ca2  1  0.499999  0.778399  0.115423  1.0
  Ca  Ca3  1  0.499996  0.721691  0.615404  1.0
  Ca  Ca4  1  0.500005  0.278515  0.384575  1.0
  Fe  Fe5  1  0.000004  0.238377  0.635775  1.0
  Fe  Fe6  1  0.000004  0.761631  0.364185  1.0
  Fe  Fe7  1  0.999997  0.261599  0.135815  1.0
  Fe  Fe8  1  0.999999  0.738332  0.864224  1.0
  O  O9  1  0.000001  0.500057  0.500022  1.0
  O  O10  1  0.999997  0.105810  0.298819  1.0
  O  O11  1  0.999999  0.605766  0.201231  1.0
  O  O12  1  0.000000  0.394242  0.798744  1.0
  O  O13  1  0.500003  0.296326  0.106962  1.0
  O  O14  1  0.499996  0.703673  0.893049  1.0
  O  O15  1  0.999999  0.894260  0.701242  1.0
  O  O16  1  0.500004  0.203550  0.606879  1.0
  O  O17  1  0.000004  0.999968  0.000025  1.0
  O  O18  1  0.500000  0.796246  0.393021  1.0
