# generated using pymatgen
data_H4IN
_symmetry_space_group_name_H-M   'P 1'
_cell_length_a   6.16145704
_cell_length_b   6.16145704
_cell_length_c   4.40484564
_cell_angle_alpha   90.00000000
_cell_angle_beta   90.00000000
_cell_angle_gamma   90.00000000
_symmetry_Int_Tables_number   1
_chemical_formula_structural   H4IN
_chemical_formula_sum   'H8 I2 N2'
_cell_volume   167.22359028
_cell_formula_units_Z   2
loop_
 _symmetry_equiv_pos_site_id
 _symmetry_equiv_pos_as_xyz
  1  'x, y, z'
loop_
 _atom_site_type_symbol
 _atom_site_label
 _atom_site_symmetry_multiplicity
 _atom_site_fract_x
 _atom_site_fract_y
 _atom_site_fract_z
 _atom_site_occupancy
  H  H1  1  0.361543  0.500000  0.136147  1.0
  H  H2  1  0.638457  0.500000  0.136147  1.0
  H  H3  1  0.861543  0.000000  0.863853  1.0
  H  H4  1  0.138457  0.000000  0.863853  1.0
  H  H5  1  0.500000  0.361543  0.863853  1.0
  H  H6  1  0.500000  0.638457  0.863853  1.0
  H  H7  1  0.000000  0.861543  0.136147  1.0
  H  H8  1  0.000000  0.138457  0.136147  1.0
  I  I9  1  0.000000  0.500000  0.450783  1.0
  I  I10  1  0.500000  0.000000  0.549217  1.0
  N  N11  1  0.500000  0.500000  0.000000  1.0
  N  N12  1  0.000000  0.000000  0.000000  1.0
