# generated using pymatgen
data_DyHO2
_symmetry_space_group_name_H-M   'P 1'
_cell_length_a   5.49722475
_cell_length_b   4.87658702
_cell_length_c   3.51131464
_cell_angle_alpha   90.00000000
_cell_angle_beta   90.00000000
_cell_angle_gamma   90.00000000
_symmetry_Int_Tables_number   1
_chemical_formula_structural   DyHO2
_chemical_formula_sum   'Dy2 H2 O4'
_cell_volume   94.13025143
_cell_formula_units_Z   2
loop_
 _symmetry_equiv_pos_site_id
 _symmetry_equiv_pos_as_xyz
  1  'x, y, z'
loop_
 _atom_site_type_symbol
 _atom_site_label
 _atom_site_symmetry_multiplicity
 _atom_site_fract_x
 _atom_site_fract_y
 _atom_site_fract_z
 _atom_site_occupancy
  Dy  Dy1  1  0.017501  0.277057  0.000000  1.0
  Dy  Dy2  1  0.517501  0.722943  0.500000  1.0
  H  H3  1  0.037345  0.806581  0.500000  1.0
  H  H4  1  0.537345  0.193419  0.000000  1.0
  O  O5  1  0.143100  0.978558  0.500000  1.0
  O  O6  1  0.379278  0.482021  0.000000  1.0
  O  O7  1  0.643100  0.021442  0.000000  1.0
  O  O8  1  0.879278  0.517979  0.500000  1.0
