# generated using pymatgen
data_Ca7SiN6
_symmetry_space_group_name_H-M   'P 1'
_cell_length_a   10.81628800
_cell_length_b   6.17597400
_cell_length_c   12.99618700
_cell_angle_alpha   90.00000000
_cell_angle_beta   90.00000000
_cell_angle_gamma   90.00000000
_symmetry_Int_Tables_number   1
_chemical_formula_structural   Ca7SiN6
_chemical_formula_sum   'Ca28 Si4 N24'
_cell_volume   868.15976239
_cell_formula_units_Z   4
loop_
 _symmetry_equiv_pos_site_id
 _symmetry_equiv_pos_as_xyz
  1  'x, y, z'
loop_
 _atom_site_type_symbol
 _atom_site_label
 _atom_site_symmetry_multiplicity
 _atom_site_fract_x
 _atom_site_fract_y
 _atom_site_fract_z
 _atom_site_occupancy
  Ca  Ca1  1  0.038444  0.735323  0.979738  1.0
  Ca  Ca2  1  0.461556  0.764677  0.479738  1.0
  Ca  Ca3  1  0.538444  0.764677  0.020262  1.0
  Ca  Ca4  1  0.961556  0.735323  0.520262  1.0
  Ca  Ca5  1  0.961556  0.264677  0.020262  1.0
  Ca  Ca6  1  0.538444  0.235323  0.520262  1.0
  Ca  Ca7  1  0.461556  0.235323  0.979738  1.0
  Ca  Ca8  1  0.038444  0.264677  0.479738  1.0
  Ca  Ca9  1  0.225562  0.856098  0.625342  1.0
  Ca  Ca10  1  0.274438  0.643902  0.125342  1.0
  Ca  Ca11  1  0.725562  0.643902  0.374658  1.0
  Ca  Ca12  1  0.774438  0.856098  0.874658  1.0
  Ca  Ca13  1  0.774438  0.143902  0.374658  1.0
  Ca  Ca14  1  0.725562  0.356098  0.874658  1.0
  Ca  Ca15  1  0.274438  0.356098  0.625342  1.0
  Ca  Ca16  1  0.225562  0.143902  0.125342  1.0
  Ca  Ca17  1  0.294297  0.611718  0.878495  1.0
  Ca  Ca18  1  0.205703  0.888282  0.378495  1.0
  Ca  Ca19  1  0.794297  0.888282  0.121505  1.0
  Ca  Ca20  1  0.705703  0.611718  0.621505  1.0
  Ca  Ca21  1  0.705703  0.388282  0.121505  1.0
  Ca  Ca22  1  0.794297  0.111718  0.621505  1.0
  Ca  Ca23  1  0.205703  0.111718  0.878495  1.0
  Ca  Ca24  1  0.294297  0.388282  0.378495  1.0
  Ca  Ca25  1  0.000000  0.443055  0.750000  1.0
  Ca  Ca26  1  0.500000  0.056945  0.250000  1.0
  Ca  Ca27  1  0.000000  0.556945  0.250000  1.0
  Ca  Ca28  1  0.500000  0.943055  0.750000  1.0
  Si  Si29  1  0.000000  0.932911  0.750000  1.0
  Si  Si30  1  0.500000  0.567089  0.250000  1.0
  Si  Si31  1  0.000000  0.067089  0.250000  1.0
  Si  Si32  1  0.500000  0.432911  0.750000  1.0
  N  N33  1  0.126114  0.763532  0.790905  1.0
  N  N34  1  0.373886  0.736468  0.290905  1.0
  N  N35  1  0.626114  0.736468  0.209095  1.0
  N  N36  1  0.873886  0.763532  0.709095  1.0
  N  N37  1  0.873886  0.236468  0.209095  1.0
  N  N38  1  0.626114  0.263532  0.709095  1.0
  N  N39  1  0.373886  0.263532  0.790905  1.0
  N  N40  1  0.126114  0.236468  0.290905  1.0
  N  N41  1  0.166554  0.592198  0.503273  1.0
  N  N42  1  0.333446  0.907802  0.003273  1.0
  N  N43  1  0.666554  0.907802  0.496727  1.0
  N  N44  1  0.833446  0.592198  0.996727  1.0
  N  N45  1  0.833446  0.407802  0.496727  1.0
  N  N46  1  0.666554  0.092198  0.996727  1.0
  N  N47  1  0.333446  0.092198  0.503273  1.0
  N  N48  1  0.166554  0.407802  0.003273  1.0
  N  N49  1  0.454611  0.600200  0.644947  1.0
  N  N50  1  0.045389  0.899800  0.144947  1.0
  N  N51  1  0.954611  0.899800  0.355053  1.0
  N  N52  1  0.545389  0.600200  0.855053  1.0
  N  N53  1  0.545389  0.399800  0.355053  1.0
  N  N54  1  0.954611  0.100200  0.855053  1.0
  N  N55  1  0.045389  0.100200  0.644947  1.0
  N  N56  1  0.454611  0.399800  0.144947  1.0
