# generated using pymatgen
data_YWN3
_symmetry_space_group_name_H-M   'P 1'
_cell_length_a   3.46349967
_cell_length_b   6.07064000
_cell_length_c   6.84880000
_cell_angle_alpha   90.00000000
_cell_angle_beta   75.35351683
_cell_angle_gamma   90.00000000
_symmetry_Int_Tables_number   1
_chemical_formula_structural   YWN3
_chemical_formula_sum   'Y2 W2 N6'
_cell_volume   139.32114695
_cell_formula_units_Z   2
loop_
 _symmetry_equiv_pos_site_id
 _symmetry_equiv_pos_as_xyz
  1  'x, y, z'
loop_
 _atom_site_type_symbol
 _atom_site_label
 _atom_site_symmetry_multiplicity
 _atom_site_fract_x
 _atom_site_fract_y
 _atom_site_fract_z
 _atom_site_occupancy
  Y  Y1  1  0.314730  0.250000  0.370540  1.0
  Y  Y2  1  0.685270  0.750000  0.629460  1.0
  W  W3  1  0.929300  0.750000  0.141400  1.0
  W  W4  1  0.070700  0.250000  0.858600  1.0
  N  N5  1  0.839970  0.982010  0.320060  1.0
  N  N6  1  0.160030  0.482010  0.679940  1.0
  N  N7  1  0.496760  0.750000  0.006480  1.0
  N  N8  1  0.160030  0.017990  0.679940  1.0
  N  N9  1  0.839970  0.517990  0.320060  1.0
  N  N10  1  0.503240  0.250000  0.993520  1.0
