# generated using pymatgen
data_Sn3As4
_symmetry_space_group_name_H-M   'P 1'
_cell_length_a   5.86066118
_cell_length_b   5.86066118
_cell_length_c   5.86228308
_cell_angle_alpha   90.00000000
_cell_angle_beta   90.00000000
_cell_angle_gamma   90.00000000
_symmetry_Int_Tables_number   1
_chemical_formula_structural   Sn3As4
_chemical_formula_sum   'Sn3 As4'
_cell_volume   201.35388562
_cell_formula_units_Z   1
loop_
 _symmetry_equiv_pos_site_id
 _symmetry_equiv_pos_as_xyz
  1  'x, y, z'
loop_
 _atom_site_type_symbol
 _atom_site_label
 _atom_site_symmetry_multiplicity
 _atom_site_fract_x
 _atom_site_fract_y
 _atom_site_fract_z
 _atom_site_occupancy
  Sn  Sn1  1  0.000000  0.000000  0.000000  1.0
  Sn  Sn2  1  0.500000  0.000000  0.500000  1.0
  Sn  Sn3  1  0.000000  0.500000  0.500000  1.0
  As  As4  1  0.286971  0.713029  0.786970  1.0
  As  As5  1  0.713029  0.286971  0.786970  1.0
  As  As6  1  0.286971  0.286971  0.213030  1.0
  As  As7  1  0.713029  0.713029  0.213030  1.0
