# generated using pymatgen
data_Ni(HO)2
_symmetry_space_group_name_H-M   'P 1'
_cell_length_a   3.16252192
_cell_length_b   3.16485051
_cell_length_c   4.73215004
_cell_angle_alpha   90.00000034
_cell_angle_beta   95.64047979
_cell_angle_gamma   120.02435766
_symmetry_Int_Tables_number   1
_chemical_formula_structural   Ni(HO)2
_chemical_formula_sum   'Ni1 H2 O2'
_cell_volume   40.74297887
_cell_formula_units_Z   1
loop_
 _symmetry_equiv_pos_site_id
 _symmetry_equiv_pos_as_xyz
  1  'x, y, z'
loop_
 _atom_site_type_symbol
 _atom_site_label
 _atom_site_symmetry_multiplicity
 _atom_site_fract_x
 _atom_site_fract_y
 _atom_site_fract_z
 _atom_site_occupancy
  Ni  Ni1  1  0.000000  0.951540  0.000000  1.0
  H  H2  1  0.610652  0.219792  0.579327  1.0
  H  H3  1  0.389348  0.609140  0.420673  1.0
  O  O4  1  0.620638  0.261607  0.783423  1.0
  O  O5  1  0.379362  0.640969  0.216577  1.0
