# generated using pymatgen
data_Mg2SbN3
_symmetry_space_group_name_H-M   'P 1'
_cell_length_a   5.96996426
_cell_length_b   5.95472817
_cell_length_c   5.42062789
_cell_angle_alpha   90.00000000
_cell_angle_beta   90.00000000
_cell_angle_gamma   119.91561946
_symmetry_Int_Tables_number   1
_chemical_formula_structural   Mg2SbN3
_chemical_formula_sum   'Mg4 Sb2 N6'
_cell_volume   167.02540786
_cell_formula_units_Z   2
loop_
 _symmetry_equiv_pos_site_id
 _symmetry_equiv_pos_as_xyz
  1  'x, y, z'
loop_
 _atom_site_type_symbol
 _atom_site_label
 _atom_site_symmetry_multiplicity
 _atom_site_fract_x
 _atom_site_fract_y
 _atom_site_fract_z
 _atom_site_occupancy
  Mg  Mg1  1  0.340468  0.332230  0.487976  1.0
  Mg  Mg2  1  0.659532  0.991762  0.487976  1.0
  Mg  Mg3  1  0.659532  0.667770  0.987976  1.0
  Mg  Mg4  1  0.340468  0.008238  0.987976  1.0
  Sb  Sb5  1  0.000000  0.675594  0.481026  1.0
  Sb  Sb6  1  0.000000  0.324406  0.981026  1.0
  N  N7  1  0.322286  0.335229  0.875969  1.0
  N  N8  1  0.677714  0.012943  0.875969  1.0
  N  N9  1  0.677714  0.664771  0.375969  1.0
  N  N10  1  0.322286  0.987057  0.375969  1.0
  N  N11  1  0.000000  0.654637  0.863084  1.0
  N  N12  1  0.000000  0.345363  0.363084  1.0
