# generated using pymatgen
data_Ni4W
_symmetry_space_group_name_H-M   'P 1'
_cell_length_a   3.55248233
_cell_length_b   4.42852726
_cell_length_c   4.42852726
_cell_angle_alpha   80.74238385
_cell_angle_beta   66.35361796
_cell_angle_gamma   66.35361797
_symmetry_Int_Tables_number   1
_chemical_formula_structural   Ni4W
_chemical_formula_sum   'Ni4 W1'
_cell_volume   58.46256589
_cell_formula_units_Z   1
loop_
 _symmetry_equiv_pos_site_id
 _symmetry_equiv_pos_as_xyz
  1  'x, y, z'
loop_
 _atom_site_type_symbol
 _atom_site_label
 _atom_site_symmetry_multiplicity
 _atom_site_fract_x
 _atom_site_fract_y
 _atom_site_fract_z
 _atom_site_occupancy
  Ni  Ni1  1  0.199193  0.201211  0.400402  1.0
  Ni  Ni2  1  0.599595  0.599598  0.201211  1.0
  Ni  Ni3  1  0.400405  0.400402  0.798789  1.0
  Ni  Ni4  1  0.800807  0.798789  0.599598  1.0
  W  W5  1  0.000000  0.000000  0.000000  1.0
