# generated using pymatgen
data_Rb2NiO2
_symmetry_space_group_name_H-M   'P 1'
_cell_length_a   4.20041112
_cell_length_b   4.20041112
_cell_length_c   7.31024558
_cell_angle_alpha   106.69615074
_cell_angle_beta   106.69615077
_cell_angle_gamma   89.99999997
_symmetry_Int_Tables_number   1
_chemical_formula_structural   Rb2NiO2
_chemical_formula_sum   'Rb2 Ni1 O2'
_cell_volume   117.85241101
_cell_formula_units_Z   1
loop_
 _symmetry_equiv_pos_site_id
 _symmetry_equiv_pos_as_xyz
  1  'x, y, z'
loop_
 _atom_site_type_symbol
 _atom_site_label
 _atom_site_symmetry_multiplicity
 _atom_site_fract_x
 _atom_site_fract_y
 _atom_site_fract_z
 _atom_site_occupancy
  Rb  Rb1  1  0.343734  0.343734  0.687467  1.0
  Rb  Rb2  1  0.656266  0.656266  0.312533  1.0
  Ni  Ni3  1  0.000000  0.000000  0.000000  1.0
  O  O4  1  0.871308  0.871308  0.742615  1.0
  O  O5  1  0.128692  0.128692  0.257385  1.0
