# generated using pymatgen
data_YAlPd
_symmetry_space_group_name_H-M   'P 1'
_cell_length_a   7.16536213
_cell_length_b   7.16536213
_cell_length_c   4.08227616
_cell_angle_alpha   90.00000000
_cell_angle_beta   90.00000000
_cell_angle_gamma   119.99999997
_symmetry_Int_Tables_number   1
_chemical_formula_structural   YAlPd
_chemical_formula_sum   'Y3 Al3 Pd3'
_cell_volume   181.51365451
_cell_formula_units_Z   3
loop_
 _symmetry_equiv_pos_site_id
 _symmetry_equiv_pos_as_xyz
  1  'x, y, z'
loop_
 _atom_site_type_symbol
 _atom_site_label
 _atom_site_symmetry_multiplicity
 _atom_site_fract_x
 _atom_site_fract_y
 _atom_site_fract_z
 _atom_site_occupancy
  Y  Y1  1  0.416233  0.416233  0.500000  1.0
  Y  Y2  1  0.583767  0.000000  0.500000  1.0
  Y  Y3  1  0.000000  0.583767  0.500000  1.0
  Al  Al4  1  0.000000  0.236959  0.000000  1.0
  Al  Al5  1  0.763041  0.763041  0.000000  1.0
  Al  Al6  1  0.236959  0.000000  0.000000  1.0
  Pd  Pd7  1  0.666667  0.333333  0.000000  1.0
  Pd  Pd8  1  0.000000  0.000000  0.500000  1.0
  Pd  Pd9  1  0.333333  0.666667  0.000000  1.0
