# generated using pymatgen
data_MoCl4O
_symmetry_space_group_name_H-M   'P 1'
_cell_length_a   6.64235970
_cell_length_b   7.78944105
_cell_length_c   7.67612337
_cell_angle_alpha   103.49474945
_cell_angle_beta   108.14913046
_cell_angle_gamma   93.27294559
_symmetry_Int_Tables_number   1
_chemical_formula_structural   MoCl4O
_chemical_formula_sum   'Mo2 Cl8 O2'
_cell_volume   363.34784184
_cell_formula_units_Z   2
loop_
 _symmetry_equiv_pos_site_id
 _symmetry_equiv_pos_as_xyz
  1  'x, y, z'
loop_
 _atom_site_type_symbol
 _atom_site_label
 _atom_site_symmetry_multiplicity
 _atom_site_fract_x
 _atom_site_fract_y
 _atom_site_fract_z
 _atom_site_occupancy
  Mo  Mo1  1  0.929937  0.726512  0.782438  1.0
  Mo  Mo2  1  0.070063  0.273488  0.217562  1.0
  Cl  Cl3  1  0.825282  0.153118  0.909433  1.0
  Cl  Cl4  1  0.676846  0.694058  0.925550  1.0
  Cl  Cl5  1  0.844212  0.117496  0.319909  1.0
  Cl  Cl6  1  0.155788  0.882504  0.680091  1.0
  Cl  Cl7  1  0.654722  0.735290  0.514554  1.0
  Cl  Cl8  1  0.174718  0.846882  0.090567  1.0
  Cl  Cl9  1  0.323154  0.305942  0.074450  1.0
  Cl  Cl10  1  0.345278  0.264710  0.485446  1.0
  O  O11  1  0.010864  0.482788  0.272444  1.0
  O  O12  1  0.989135  0.517212  0.727556  1.0
