# generated using pymatgen
data_CaAg2
_symmetry_space_group_name_H-M   'P 1'
_cell_length_a   4.71861273
_cell_length_b   6.01475583
_cell_length_c   6.01475574
_cell_angle_alpha   75.27540043
_cell_angle_beta   66.90524165
_cell_angle_gamma   66.90523717
_symmetry_Int_Tables_number   1
_chemical_formula_structural   CaAg2
_chemical_formula_sum   'Ca2 Ag4'
_cell_volume   143.42266448
_cell_formula_units_Z   2
loop_
 _symmetry_equiv_pos_site_id
 _symmetry_equiv_pos_as_xyz
  1  'x, y, z'
loop_
 _atom_site_type_symbol
 _atom_site_label
 _atom_site_symmetry_multiplicity
 _atom_site_fract_x
 _atom_site_fract_y
 _atom_site_fract_z
 _atom_site_occupancy
  Ca  Ca1  1  0.952634  0.297366  0.297366  1.0
  Ca  Ca2  1  0.047366  0.702634  0.702634  1.0
  Ag  Ag3  1  0.661559  0.287726  0.889156  1.0
  Ag  Ag4  1  0.338441  0.712274  0.110844  1.0
  Ag  Ag5  1  0.338441  0.110844  0.712274  1.0
  Ag  Ag6  1  0.661559  0.889156  0.287726  1.0
