# generated using pymatgen
data_Co2As2O7
_symmetry_space_group_name_H-M   'P 1'
_cell_length_a   4.86325494
_cell_length_b   5.43851660
_cell_length_c   5.47078910
_cell_angle_alpha   105.88926151
_cell_angle_beta   97.12836250
_cell_angle_gamma   97.29990975
_symmetry_Int_Tables_number   1
_chemical_formula_structural   Co2As2O7
_chemical_formula_sum   'Co2 As2 O7'
_cell_volume   136.11204679
_cell_formula_units_Z   1
loop_
 _symmetry_equiv_pos_site_id
 _symmetry_equiv_pos_as_xyz
  1  'x, y, z'
loop_
 _atom_site_type_symbol
 _atom_site_label
 _atom_site_symmetry_multiplicity
 _atom_site_fract_x
 _atom_site_fract_y
 _atom_site_fract_z
 _atom_site_occupancy
  Co  Co1  1  0.501698  0.692846  0.310338  1.0
  Co  Co2  1  0.497298  0.306681  0.690198  1.0
  As  As3  1  0.100382  0.758330  0.761449  1.0
  As  As4  1  0.899371  0.239424  0.236530  1.0
  O  O5  1  0.292586  0.929359  0.600199  1.0
  O  O6  1  0.772826  0.593401  0.598127  1.0
  O  O7  1  0.223892  0.408715  0.405010  1.0
  O  O8  1  0.005389  0.002909  0.999811  1.0
  O  O9  1  0.289729  0.593848  0.928448  1.0
  O  O10  1  0.709352  0.405187  0.071778  1.0
  O  O11  1  0.707476  0.069298  0.398111  1.0
