# generated using pymatgen
data_CoSO4
_symmetry_space_group_name_H-M   'P 1'
_cell_length_a   4.79738375
_cell_length_b   4.79731649
_cell_length_c   6.58760507
_cell_angle_alpha   89.98984181
_cell_angle_beta   89.98057918
_cell_angle_gamma   113.84874252
_symmetry_Int_Tables_number   1
_chemical_formula_structural   CoSO4
_chemical_formula_sum   'Co2 S2 O8'
_cell_volume   138.66573106
_cell_formula_units_Z   2
loop_
 _symmetry_equiv_pos_site_id
 _symmetry_equiv_pos_as_xyz
  1  'x, y, z'
loop_
 _atom_site_type_symbol
 _atom_site_label
 _atom_site_symmetry_multiplicity
 _atom_site_fract_x
 _atom_site_fract_y
 _atom_site_fract_z
 _atom_site_occupancy
  Co  Co1  1  0.000000  0.000000  0.500000  1.0
  Co  Co2  1  0.000000  0.000000  0.000000  1.0
  S  S3  1  0.349115  0.650893  0.750012  1.0
  S  S4  1  0.650885  0.349107  0.249988  1.0
  O  O5  1  0.226553  0.305166  0.750142  1.0
  O  O6  1  0.750321  0.249439  0.063650  1.0
  O  O7  1  0.694806  0.773287  0.749898  1.0
  O  O8  1  0.249679  0.750561  0.936350  1.0
  O  O9  1  0.773448  0.694834  0.249859  1.0
  O  O10  1  0.305194  0.226713  0.250102  1.0
  O  O11  1  0.750497  0.249599  0.436219  1.0
  O  O12  1  0.249503  0.750401  0.563781  1.0
