# generated using pymatgen
data_CeVO4
_symmetry_space_group_name_H-M   'P 1'
_cell_length_a   6.12411896
_cell_length_b   6.12411896
_cell_length_c   6.12411896
_cell_angle_alpha   106.54531457
_cell_angle_beta   106.54531458
_cell_angle_gamma   115.49630252
_symmetry_Int_Tables_number   1
_chemical_formula_structural   CeVO4
_chemical_formula_sum   'Ce2 V2 O8'
_cell_volume   175.32919780
_cell_formula_units_Z   2
loop_
 _symmetry_equiv_pos_site_id
 _symmetry_equiv_pos_as_xyz
  1  'x, y, z'
loop_
 _atom_site_type_symbol
 _atom_site_label
 _atom_site_symmetry_multiplicity
 _atom_site_fract_x
 _atom_site_fract_y
 _atom_site_fract_z
 _atom_site_occupancy
  Ce  Ce1  1  0.875000  0.125000  0.750000  1.0
  Ce  Ce2  1  0.125000  0.875000  0.250000  1.0
  V  V3  1  0.625000  0.375000  0.250000  1.0
  V  V4  1  0.375000  0.625000  0.750000  1.0
  O  O5  1  0.803765  0.735546  0.431781  1.0
  O  O6  1  0.803765  0.371985  0.068219  1.0
  O  O7  1  0.264454  0.196235  0.068219  1.0
  O  O8  1  0.196235  0.628015  0.931781  1.0
  O  O9  1  0.196235  0.264454  0.568219  1.0
  O  O10  1  0.628015  0.196235  0.431781  1.0
  O  O11  1  0.371985  0.803765  0.568219  1.0
  O  O12  1  0.735546  0.803765  0.931781  1.0
