# generated using pymatgen
data_Rb2HgO2
_symmetry_space_group_name_H-M   'P 1'
_cell_length_a   4.23977470
_cell_length_b   4.23977469
_cell_length_c   7.80863370
_cell_angle_alpha   105.75235046
_cell_angle_beta   105.75235047
_cell_angle_gamma   89.99999998
_symmetry_Int_Tables_number   1
_chemical_formula_structural   Rb2HgO2
_chemical_formula_sum   'Rb2 Hg1 O2'
_cell_volume   129.60823073
_cell_formula_units_Z   1
loop_
 _symmetry_equiv_pos_site_id
 _symmetry_equiv_pos_as_xyz
  1  'x, y, z'
loop_
 _atom_site_type_symbol
 _atom_site_label
 _atom_site_symmetry_multiplicity
 _atom_site_fract_x
 _atom_site_fract_y
 _atom_site_fract_z
 _atom_site_occupancy
  Rb  Rb1  1  0.666553  0.666553  0.333105  1.0
  Rb  Rb2  1  0.333447  0.333447  0.666895  1.0
  Hg  Hg3  1  0.000000  0.000000  0.000000  1.0
  O  O4  1  0.861009  0.861009  0.722019  1.0
  O  O5  1  0.138991  0.138991  0.277981  1.0
