# generated using pymatgen
data_Fe(SbO2)2
_symmetry_space_group_name_H-M   'P 1'
_cell_length_a   6.04776709
_cell_length_b   8.76527809
_cell_length_c   8.76527809
_cell_angle_alpha   90.00000000
_cell_angle_beta   90.00000000
_cell_angle_gamma   90.00000000
_symmetry_Int_Tables_number   1
_chemical_formula_structural   Fe(SbO2)2
_chemical_formula_sum   'Fe4 Sb8 O16'
_cell_volume   464.65055027
_cell_formula_units_Z   4
loop_
 _symmetry_equiv_pos_site_id
 _symmetry_equiv_pos_as_xyz
  1  'x, y, z'
loop_
 _atom_site_type_symbol
 _atom_site_label
 _atom_site_symmetry_multiplicity
 _atom_site_fract_x
 _atom_site_fract_y
 _atom_site_fract_z
 _atom_site_occupancy
  Fe  Fe1  1  0.750000  0.000000  0.500000  1.0
  Fe  Fe2  1  0.250000  0.500000  0.000000  1.0
  Fe  Fe3  1  0.750000  0.500000  0.000000  1.0
  Fe  Fe4  1  0.250000  0.000000  0.500000  1.0
  Sb  Sb5  1  0.500000  0.333162  0.322490  1.0
  Sb  Sb6  1  0.000000  0.322490  0.666838  1.0
  Sb  Sb7  1  0.500000  0.166838  0.822490  1.0
  Sb  Sb8  1  0.000000  0.822490  0.833162  1.0
  Sb  Sb9  1  0.500000  0.666838  0.677510  1.0
  Sb  Sb10  1  0.000000  0.677510  0.333162  1.0
  Sb  Sb11  1  0.500000  0.833162  0.177510  1.0
  Sb  Sb12  1  0.000000  0.177510  0.166838  1.0
  O  O13  1  0.750000  0.320820  0.820820  1.0
  O  O14  1  0.250000  0.820820  0.679180  1.0
  O  O15  1  0.750000  0.179180  0.320820  1.0
  O  O16  1  0.250000  0.320820  0.820820  1.0
  O  O17  1  0.750000  0.820820  0.679180  1.0
  O  O18  1  0.250000  0.179180  0.320820  1.0
  O  O19  1  0.250000  0.679180  0.179180  1.0
  O  O20  1  0.750000  0.679180  0.179180  1.0
  O  O21  1  0.500000  0.859479  0.400606  1.0
  O  O22  1  0.000000  0.400606  0.140521  1.0
  O  O23  1  0.500000  0.640521  0.900606  1.0
  O  O24  1  0.000000  0.900606  0.359479  1.0
  O  O25  1  0.500000  0.140521  0.599394  1.0
  O  O26  1  0.000000  0.599394  0.859479  1.0
  O  O27  1  0.500000  0.359479  0.099394  1.0
  O  O28  1  0.000000  0.099394  0.640521  1.0
