# generated using pymatgen
data_MnCuO2
_symmetry_space_group_name_H-M   'P 1'
_cell_length_a   2.97828733
_cell_length_b   3.20906728
_cell_length_c   5.92955776
_cell_angle_alpha   102.73664327
_cell_angle_beta   90.00000000
_cell_angle_gamma   117.64827299
_symmetry_Int_Tables_number   1
_chemical_formula_structural   MnCuO2
_chemical_formula_sum   'Mn1 Cu1 O2'
_cell_volume   48.62096678
_cell_formula_units_Z   1
loop_
 _symmetry_equiv_pos_site_id
 _symmetry_equiv_pos_as_xyz
  1  'x, y, z'
loop_
 _atom_site_type_symbol
 _atom_site_label
 _atom_site_symmetry_multiplicity
 _atom_site_fract_x
 _atom_site_fract_y
 _atom_site_fract_z
 _atom_site_occupancy
  Mn  Mn1  1  0.000000  0.000000  0.000000  1.0
  Cu  Cu2  1  0.500001  0.000001  0.500001  1.0
  O  O3  1  0.596046  0.192091  0.819765  1.0
  O  O4  1  0.403954  0.807907  0.180234  1.0
