# generated using pymatgen
data_HoAgGe
_symmetry_space_group_name_H-M   'P 1'
_cell_length_a   7.34307109
_cell_length_b   7.34307110
_cell_length_c   4.11358784
_cell_angle_alpha   90.00000000
_cell_angle_beta   90.00000000
_cell_angle_gamma   120.00000002
_symmetry_Int_Tables_number   1
_chemical_formula_structural   HoAgGe
_chemical_formula_sum   'Ho3 Ag3 Ge3'
_cell_volume   192.09093619
_cell_formula_units_Z   3
loop_
 _symmetry_equiv_pos_site_id
 _symmetry_equiv_pos_as_xyz
  1  'x, y, z'
loop_
 _atom_site_type_symbol
 _atom_site_label
 _atom_site_symmetry_multiplicity
 _atom_site_fract_x
 _atom_site_fract_y
 _atom_site_fract_z
 _atom_site_occupancy
  Ho  Ho1  1  0.000000  0.603291  0.000000  1.0
  Ho  Ho2  1  0.396709  0.396709  0.000000  1.0
  Ho  Ho3  1  0.603291  0.000000  0.000000  1.0
  Ag  Ag4  1  0.666667  0.333333  0.500000  1.0
  Ag  Ag5  1  0.000000  0.000000  0.000000  1.0
  Ag  Ag6  1  0.333333  0.666667  0.500000  1.0
  Ge  Ge7  1  0.732216  0.732216  0.500000  1.0
  Ge  Ge8  1  0.267784  0.000000  0.500000  1.0
  Ge  Ge9  1  0.000000  0.267784  0.500000  1.0
