# generated using pymatgen
data_ScVO4
_symmetry_space_group_name_H-M   'P 1'
_cell_length_a   5.75093934
_cell_length_b   5.75093934
_cell_length_c   5.75093934
_cell_angle_alpha   106.72124048
_cell_angle_beta   106.72124048
_cell_angle_gamma   115.12337537
_symmetry_Int_Tables_number   1
_chemical_formula_structural   ScVO4
_chemical_formula_sum   'Sc2 V2 O8'
_cell_volume   145.33877353
_cell_formula_units_Z   2
loop_
 _symmetry_equiv_pos_site_id
 _symmetry_equiv_pos_as_xyz
  1  'x, y, z'
loop_
 _atom_site_type_symbol
 _atom_site_label
 _atom_site_symmetry_multiplicity
 _atom_site_fract_x
 _atom_site_fract_y
 _atom_site_fract_z
 _atom_site_occupancy
  Sc  Sc1  1  0.875000  0.125000  0.250000  1.0
  Sc  Sc2  1  0.125000  0.875000  0.750000  1.0
  V  V3  1  0.625000  0.375000  0.750000  1.0
  V  V4  1  0.375000  0.625000  0.250000  1.0
  O  O5  1  0.251161  0.194564  0.556597  1.0
  O  O6  1  0.194564  0.251161  0.056597  1.0
  O  O7  1  0.194564  0.637967  0.443403  1.0
  O  O8  1  0.637967  0.194564  0.943403  1.0
  O  O9  1  0.748839  0.805436  0.443403  1.0
  O  O10  1  0.805436  0.748839  0.943403  1.0
  O  O11  1  0.805436  0.362033  0.556597  1.0
  O  O12  1  0.362033  0.805436  0.056597  1.0
