# generated using pymatgen
data_Li2WO4
_symmetry_space_group_name_H-M   'P 1'
_cell_length_a   5.17026874
_cell_length_b   5.82723900
_cell_length_c   5.82723899
_cell_angle_alpha   61.67988564
_cell_angle_beta   88.67057640
_cell_angle_gamma   88.67057640
_symmetry_Int_Tables_number   1
_chemical_formula_structural   Li2WO4
_chemical_formula_sum   'Li4 W2 O8'
_cell_volume   154.49564068
_cell_formula_units_Z   2
loop_
 _symmetry_equiv_pos_site_id
 _symmetry_equiv_pos_as_xyz
  1  'x, y, z'
loop_
 _atom_site_type_symbol
 _atom_site_label
 _atom_site_symmetry_multiplicity
 _atom_site_fract_x
 _atom_site_fract_y
 _atom_site_fract_z
 _atom_site_occupancy
  Li  Li1  1  0.271417  0.457468  0.157337  1.0
  Li  Li2  1  0.228583  0.842663  0.542532  1.0
  Li  Li3  1  0.728583  0.542532  0.842663  1.0
  Li  Li4  1  0.771417  0.157337  0.457468  1.0
  W  W5  1  0.250000  0.162728  0.837272  1.0
  W  W6  1  0.750000  0.837272  0.162728  1.0
  O  O7  1  0.863857  0.777073  0.482838  1.0
  O  O8  1  0.363857  0.482838  0.777073  1.0
  O  O9  1  0.428422  0.998442  0.207171  1.0
  O  O10  1  0.071578  0.792829  0.001558  1.0
  O  O11  1  0.571578  0.001558  0.792829  1.0
  O  O12  1  0.928422  0.207171  0.998442  1.0
  O  O13  1  0.136143  0.222927  0.517162  1.0
  O  O14  1  0.636143  0.517162  0.222927  1.0
