# generated using pymatgen
data_LaCrO3
_symmetry_space_group_name_H-M   'P 1'
_cell_length_a   5.61169205
_cell_length_b   5.56728006
_cell_length_c   7.88797239
_cell_angle_alpha   90.00000000
_cell_angle_beta   90.00000000
_cell_angle_gamma   90.00000000
_symmetry_Int_Tables_number   1
_chemical_formula_structural   LaCrO3
_chemical_formula_sum   'La4 Cr4 O12'
_cell_volume   246.43493897
_cell_formula_units_Z   4
loop_
 _symmetry_equiv_pos_site_id
 _symmetry_equiv_pos_as_xyz
  1  'x, y, z'
loop_
 _atom_site_type_symbol
 _atom_site_label
 _atom_site_symmetry_multiplicity
 _atom_site_fract_x
 _atom_site_fract_y
 _atom_site_fract_z
 _atom_site_occupancy
  La  La1  1  0.037371  0.991901  0.250000  1.0
  La  La2  1  0.537371  0.508099  0.250000  1.0
  La  La3  1  0.462629  0.491901  0.750000  1.0
  La  La4  1  0.962629  0.008099  0.750000  1.0
  Cr  Cr5  1  0.000000  0.500000  0.500000  1.0
  Cr  Cr6  1  0.500000  0.000000  0.000000  1.0
  Cr  Cr7  1  0.500000  0.000000  0.500000  1.0
  Cr  Cr8  1  0.000000  0.500000  0.000000  1.0
  O  O9  1  0.711795  0.288326  0.543178  1.0
  O  O10  1  0.211795  0.211674  0.956822  1.0
  O  O11  1  0.788205  0.788326  0.456822  1.0
  O  O12  1  0.288205  0.711674  0.043178  1.0
  O  O13  1  0.288205  0.711674  0.456822  1.0
  O  O14  1  0.788205  0.788326  0.043178  1.0
  O  O15  1  0.211795  0.211674  0.543178  1.0
  O  O16  1  0.711795  0.288326  0.956822  1.0
  O  O17  1  0.519043  0.919281  0.750000  1.0
  O  O18  1  0.019043  0.580719  0.750000  1.0
  O  O19  1  0.980957  0.419281  0.250000  1.0
  O  O20  1  0.480957  0.080719  0.250000  1.0
