# generated using pymatgen
data_NiWO4
_symmetry_space_group_name_H-M   'P 1'
_cell_length_a   4.66849207
_cell_length_b   5.02132875
_cell_length_c   5.73270034
_cell_angle_alpha   89.99996563
_cell_angle_beta   89.99994493
_cell_angle_gamma   90.59455460
_symmetry_Int_Tables_number   1
_chemical_formula_structural   NiWO4
_chemical_formula_sum   'Ni2 W2 O8'
_cell_volume   134.37891779
_cell_formula_units_Z   2
loop_
 _symmetry_equiv_pos_site_id
 _symmetry_equiv_pos_as_xyz
  1  'x, y, z'
loop_
 _atom_site_type_symbol
 _atom_site_label
 _atom_site_symmetry_multiplicity
 _atom_site_fract_x
 _atom_site_fract_y
 _atom_site_fract_z
 _atom_site_occupancy
  Ni  Ni1  1  0.500000  0.250000  0.655340  1.0
  Ni  Ni2  1  0.500000  0.750000  0.344660  1.0
  W  W3  1  0.000000  0.249999  0.174158  1.0
  W  W4  1  0.999999  0.749999  0.825843  1.0
  O  O5  1  0.740546  0.096828  0.377337  1.0
  O  O6  1  0.259454  0.403172  0.377337  1.0
  O  O7  1  0.259454  0.903172  0.622663  1.0
  O  O8  1  0.740546  0.596828  0.622663  1.0
  O  O9  1  0.780421  0.069743  0.890766  1.0
  O  O10  1  0.219579  0.430257  0.890765  1.0
  O  O11  1  0.780421  0.569743  0.109234  1.0
  O  O12  1  0.219579  0.930257  0.109234  1.0
