# generated using pymatgen
data_Rb(CoS)2
_symmetry_space_group_name_H-M   'P 1'
_cell_length_a   3.76020243
_cell_length_b   3.76020274
_cell_length_c   7.15656985
_cell_angle_alpha   105.23090947
_cell_angle_beta   105.23091053
_cell_angle_gamma   90.00000464
_symmetry_Int_Tables_number   1
_chemical_formula_structural   Rb(CoS)2
_chemical_formula_sum   'Rb1 Co2 S2'
_cell_volume   93.94480362
_cell_formula_units_Z   1
loop_
 _symmetry_equiv_pos_site_id
 _symmetry_equiv_pos_as_xyz
  1  'x, y, z'
loop_
 _atom_site_type_symbol
 _atom_site_label
 _atom_site_symmetry_multiplicity
 _atom_site_fract_x
 _atom_site_fract_y
 _atom_site_fract_z
 _atom_site_occupancy
  Rb  Rb1  1  0.000000  0.000000  0.000000  1.0
  Co  Co2  1  0.250000  0.750000  0.500000  1.0
  Co  Co3  1  0.750000  0.250000  0.500000  1.0
  S  S4  1  0.339535  0.339535  0.679070  1.0
  S  S5  1  0.660465  0.660465  0.320930  1.0
