# generated using pymatgen
data_LuVO4
_symmetry_space_group_name_H-M   'P 1'
_cell_length_a   5.01711115
_cell_length_b   5.01711115
_cell_length_c   6.56301939
_cell_angle_alpha   112.47162442
_cell_angle_beta   112.47162439
_cell_angle_gamma   90.00000008
_symmetry_Int_Tables_number   1
_chemical_formula_structural   LuVO4
_chemical_formula_sum   'Lu2 V2 O8'
_cell_volume   138.98518319
_cell_formula_units_Z   2
loop_
 _symmetry_equiv_pos_site_id
 _symmetry_equiv_pos_as_xyz
  1  'x, y, z'
loop_
 _atom_site_type_symbol
 _atom_site_label
 _atom_site_symmetry_multiplicity
 _atom_site_fract_x
 _atom_site_fract_y
 _atom_site_fract_z
 _atom_site_occupancy
  Lu  Lu1  1  0.375000  0.125000  0.750000  1.0
  Lu  Lu2  1  0.625000  0.875000  0.250000  1.0
  V  V3  1  0.875000  0.625000  0.750000  1.0
  V  V4  1  0.125000  0.375000  0.250000  1.0
  O  O5  1  0.698015  0.553324  0.913602  1.0
  O  O6  1  0.360278  0.198015  0.413602  1.0
  O  O7  1  0.053324  0.715587  0.413602  1.0
  O  O8  1  0.215587  0.860278  0.913602  1.0
  O  O9  1  0.784413  0.139722  0.086398  1.0
  O  O10  1  0.946676  0.284413  0.586398  1.0
  O  O11  1  0.639722  0.801985  0.586398  1.0
  O  O12  1  0.301985  0.446676  0.086398  1.0
