# generated using pymatgen
data_VBiO4
_symmetry_space_group_name_H-M   'P 1'
_cell_length_a   5.18803951
_cell_length_b   5.18803951
_cell_length_c   6.91957626
_cell_angle_alpha   112.01697673
_cell_angle_beta   112.01697674
_cell_angle_gamma   89.99999998
_symmetry_Int_Tables_number   1
_chemical_formula_structural   VBiO4
_chemical_formula_sum   'V2 Bi2 O8'
_cell_volume   157.91695267
_cell_formula_units_Z   2
loop_
 _symmetry_equiv_pos_site_id
 _symmetry_equiv_pos_as_xyz
  1  'x, y, z'
loop_
 _atom_site_type_symbol
 _atom_site_label
 _atom_site_symmetry_multiplicity
 _atom_site_fract_x
 _atom_site_fract_y
 _atom_site_fract_z
 _atom_site_occupancy
  V  V1  1  0.875000  0.624999  0.750000  1.0
  V  V2  1  0.124999  0.375001  0.250000  1.0
  Bi  Bi3  1  0.375001  0.125000  0.750001  1.0
  Bi  Bi4  1  0.625000  0.875000  0.250000  1.0
  O  O5  1  0.937675  0.295124  0.591861  1.0
  O  O6  1  0.296736  0.437676  0.091861  1.0
  O  O7  1  0.795125  0.154186  0.091862  1.0
  O  O8  1  0.654186  0.796737  0.591862  1.0
  O  O9  1  0.345815  0.203263  0.408139  1.0
  O  O10  1  0.204876  0.845814  0.908138  1.0
  O  O11  1  0.062324  0.704874  0.408138  1.0
  O  O12  1  0.703263  0.562324  0.908139  1.0
