# generated using pymatgen
data_MoS2
_symmetry_space_group_name_H-M   'P 1'
_cell_length_a   6.77920311
_cell_length_b   6.77920327
_cell_length_c   6.77920365
_cell_angle_alpha   60.16500737
_cell_angle_beta   60.16500451
_cell_angle_gamma   60.16501396
_symmetry_Int_Tables_number   1
_chemical_formula_structural   MoS2
_chemical_formula_sum   'Mo4 S8'
_cell_volume   221.12661869
_cell_formula_units_Z   4
loop_
 _symmetry_equiv_pos_site_id
 _symmetry_equiv_pos_as_xyz
  1  'x, y, z'
loop_
 _atom_site_type_symbol
 _atom_site_label
 _atom_site_symmetry_multiplicity
 _atom_site_fract_x
 _atom_site_fract_y
 _atom_site_fract_z
 _atom_site_occupancy
  Mo  Mo1  1  0.394560  0.394560  0.829950  1.0
  Mo  Mo2  1  0.829950  0.394560  0.394560  1.0
  Mo  Mo3  1  0.394560  0.829950  0.394560  1.0
  Mo  Mo4  1  0.397530  0.397530  0.397530  1.0
  S  S5  1  0.638499  0.638499  0.638499  1.0
  S  S6  1  0.097418  0.640981  0.640981  1.0
  S  S7  1  0.640981  0.097418  0.640981  1.0
  S  S8  1  0.137285  0.608843  0.137285  1.0
  S  S9  1  0.133683  0.133683  0.133683  1.0
  S  S10  1  0.137285  0.137285  0.608843  1.0
  S  S11  1  0.608843  0.137285  0.137285  1.0
  S  S12  1  0.640981  0.640981  0.097418  1.0
