# generated using pymatgen
data_Ag2MoO4
_symmetry_space_group_name_H-M   'P 1'
_cell_length_a   6.69285380
_cell_length_b   6.69285380
_cell_length_c   6.69285380
_cell_angle_alpha   60.00000002
_cell_angle_beta   60.00000002
_cell_angle_gamma   60.00000004
_symmetry_Int_Tables_number   1
_chemical_formula_structural   Ag2MoO4
_chemical_formula_sum   'Ag4 Mo2 O8'
_cell_volume   211.99177798
_cell_formula_units_Z   2
loop_
 _symmetry_equiv_pos_site_id
 _symmetry_equiv_pos_as_xyz
  1  'x, y, z'
loop_
 _atom_site_type_symbol
 _atom_site_label
 _atom_site_symmetry_multiplicity
 _atom_site_fract_x
 _atom_site_fract_y
 _atom_site_fract_z
 _atom_site_occupancy
  Ag  Ag1  1  0.500000  0.500000  0.500000  1.0
  Ag  Ag2  1  0.500000  0.500000  0.000000  1.0
  Ag  Ag3  1  0.000000  0.500000  0.500000  1.0
  Ag  Ag4  1  0.500000  0.000000  0.500000  1.0
  Mo  Mo5  1  0.875000  0.875000  0.875000  1.0
  Mo  Mo6  1  0.125000  0.125000  0.125000  1.0
  O  O7  1  0.235374  0.793877  0.235374  1.0
  O  O8  1  0.764626  0.764626  0.764626  1.0
  O  O9  1  0.235374  0.235374  0.235374  1.0
  O  O10  1  0.764626  0.764626  0.206123  1.0
  O  O11  1  0.206123  0.764626  0.764626  1.0
  O  O12  1  0.764626  0.206123  0.764626  1.0
  O  O13  1  0.793877  0.235374  0.235374  1.0
  O  O14  1  0.235374  0.235374  0.793877  1.0
