# generated using pymatgen
data_CaVO3
_symmetry_space_group_name_H-M   'P 1'
_cell_length_a   5.46467809
_cell_length_b   5.33834393
_cell_length_c   7.71530924
_cell_angle_alpha   90.00000000
_cell_angle_beta   90.00000000
_cell_angle_gamma   90.00000000
_symmetry_Int_Tables_number   1
_chemical_formula_structural   CaVO3
_chemical_formula_sum   'Ca4 V4 O12'
_cell_volume   225.07355577
_cell_formula_units_Z   4
loop_
 _symmetry_equiv_pos_site_id
 _symmetry_equiv_pos_as_xyz
  1  'x, y, z'
loop_
 _atom_site_type_symbol
 _atom_site_label
 _atom_site_symmetry_multiplicity
 _atom_site_fract_x
 _atom_site_fract_y
 _atom_site_fract_z
 _atom_site_occupancy
  Ca  Ca1  1  0.954586  0.006716  0.750000  1.0
  Ca  Ca2  1  0.454586  0.493283  0.750000  1.0
  Ca  Ca3  1  0.545415  0.506716  0.250001  1.0
  Ca  Ca4  1  0.045416  0.993285  0.250001  1.0
  V  V5  1  0.500000  0.000000  0.000000  1.0
  V  V6  1  0.000000  0.500000  0.500000  1.0
  V  V7  1  0.000000  0.500000  0.000000  1.0
  V  V8  1  0.500000  0.000000  0.500000  1.0
  O  O9  1  0.797953  0.785984  0.463324  1.0
  O  O10  1  0.297951  0.714015  0.036676  1.0
  O  O11  1  0.702048  0.285985  0.536676  1.0
  O  O12  1  0.202048  0.214015  0.963325  1.0
  O  O13  1  0.202048  0.214015  0.536676  1.0
  O  O14  1  0.702048  0.285985  0.963325  1.0
  O  O15  1  0.297951  0.714015  0.463324  1.0
  O  O16  1  0.797953  0.785984  0.036676  1.0
  O  O17  1  0.516642  0.922535  0.750000  1.0
  O  O18  1  0.016643  0.577466  0.750000  1.0
  O  O19  1  0.483357  0.077466  0.250001  1.0
  O  O20  1  0.983359  0.422533  0.250001  1.0
