# generated using pymatgen
data_CaMoO4
_symmetry_space_group_name_H-M   'P 1'
_cell_length_a   5.31071973
_cell_length_b   5.31071973
_cell_length_c   6.90823654
_cell_angle_alpha   112.60499999
_cell_angle_beta   112.60499999
_cell_angle_gamma   90.00000000
_symmetry_Int_Tables_number   1
_chemical_formula_structural   CaMoO4
_chemical_formula_sum   'Ca2 Mo2 O8'
_cell_volume   163.53761321
_cell_formula_units_Z   2
loop_
 _symmetry_equiv_pos_site_id
 _symmetry_equiv_pos_as_xyz
  1  'x, y, z'
loop_
 _atom_site_type_symbol
 _atom_site_label
 _atom_site_symmetry_multiplicity
 _atom_site_fract_x
 _atom_site_fract_y
 _atom_site_fract_z
 _atom_site_occupancy
  Ca  Ca1  1  0.125000  0.375000  0.250000  1.0
  Ca  Ca2  1  0.875000  0.625000  0.750000  1.0
  Mo  Mo3  1  0.625000  0.875000  0.250000  1.0
  Mo  Mo4  1  0.375000  0.125000  0.750000  1.0
  O  O5  1  0.786376  0.938803  0.082002  1.0
  O  O6  1  0.295626  0.643199  0.082002  1.0
  O  O7  1  0.438803  0.795626  0.582002  1.0
  O  O8  1  0.143199  0.286376  0.582002  1.0
  O  O9  1  0.213624  0.061197  0.917998  1.0
  O  O10  1  0.704374  0.356801  0.917998  1.0
  O  O11  1  0.561197  0.204374  0.417998  1.0
  O  O12  1  0.856801  0.713624  0.417998  1.0
