# generated using pymatgen
data_WO3
_symmetry_space_group_name_H-M   'P 1'
_cell_length_a   7.67572359
_cell_length_b   7.73540871
_cell_length_c   7.77129459
_cell_angle_alpha   90.00000000
_cell_angle_beta   90.03943064
_cell_angle_gamma   90.00000000
_symmetry_Int_Tables_number   1
_chemical_formula_structural   WO3
_chemical_formula_sum   'W8 O24'
_cell_volume   461.41941215
_cell_formula_units_Z   8
loop_
 _symmetry_equiv_pos_site_id
 _symmetry_equiv_pos_as_xyz
  1  'x, y, z'
loop_
 _atom_site_type_symbol
 _atom_site_label
 _atom_site_symmetry_multiplicity
 _atom_site_fract_x
 _atom_site_fract_y
 _atom_site_fract_z
 _atom_site_occupancy
  W  W1  1  0.250666  0.016087  0.265701  1.0
  W  W2  1  0.249335  0.516087  0.234299  1.0
  W  W3  1  0.749334  0.983913  0.734299  1.0
  W  W4  1  0.750666  0.483913  0.765700  1.0
  W  W5  1  0.249341  0.016458  0.765437  1.0
  W  W6  1  0.250660  0.516458  0.734564  1.0
  W  W7  1  0.750659  0.983541  0.234563  1.0
  W  W8  1  0.749341  0.483542  0.265437  1.0
  O  O9  1  0.999911  0.012708  0.242445  1.0
  O  O10  1  0.500089  0.512708  0.257555  1.0
  O  O11  1  0.000088  0.987292  0.757555  1.0
  O  O12  1  0.499912  0.487292  0.742445  1.0
  O  O13  1  0.000109  0.487041  0.242532  1.0
  O  O14  1  0.499891  0.987042  0.257468  1.0
  O  O15  1  0.999890  0.512959  0.757468  1.0
  O  O16  1  0.500109  0.012959  0.742532  1.0
  O  O17  1  0.262867  0.256213  0.254687  1.0
  O  O18  1  0.237133  0.756213  0.245313  1.0
  O  O19  1  0.737134  0.743788  0.745314  1.0
  O  O20  1  0.762867  0.243787  0.754686  1.0
  O  O21  1  0.236914  0.256280  0.747594  1.0
  O  O22  1  0.263086  0.756280  0.752406  1.0
  O  O23  1  0.763085  0.743720  0.252406  1.0
  O  O24  1  0.736915  0.243720  0.247593  1.0
  O  O25  1  0.757608  0.996401  0.496586  1.0
  O  O26  1  0.242385  0.510645  0.496588  1.0
  O  O27  1  0.742385  0.989355  0.996588  1.0
  O  O28  1  0.757614  0.489355  0.503412  1.0
  O  O29  1  0.257608  0.503599  0.996586  1.0
  O  O30  1  0.242393  0.003599  0.503413  1.0
  O  O31  1  0.742392  0.496401  0.003413  1.0
  O  O32  1  0.257614  0.010645  0.003412  1.0
