# generated using pymatgen
data_Co9S8
_symmetry_space_group_name_H-M   'P 1'
_cell_length_a   6.93283237
_cell_length_b   6.93283212
_cell_length_c   6.93283192
_cell_angle_alpha   59.99999638
_cell_angle_beta   59.99999756
_cell_angle_gamma   59.99999452
_symmetry_Int_Tables_number   1
_chemical_formula_structural   Co9S8
_chemical_formula_sum   'Co9 S8'
_cell_volume   235.62264061
_cell_formula_units_Z   1
loop_
 _symmetry_equiv_pos_site_id
 _symmetry_equiv_pos_as_xyz
  1  'x, y, z'
loop_
 _atom_site_type_symbol
 _atom_site_label
 _atom_site_symmetry_multiplicity
 _atom_site_fract_x
 _atom_site_fract_y
 _atom_site_fract_z
 _atom_site_occupancy
  Co  Co1  1  0.126528  0.126528  0.620417  1.0
  Co  Co2  1  0.126528  0.126528  0.126528  1.0
  Co  Co3  1  0.873472  0.873472  0.873472  1.0
  Co  Co4  1  0.873472  0.873472  0.379583  1.0
  Co  Co5  1  0.379583  0.873472  0.873472  1.0
  Co  Co6  1  0.500000  0.500000  0.500000  1.0
  Co  Co7  1  0.873472  0.379583  0.873472  1.0
  Co  Co8  1  0.126528  0.620417  0.126528  1.0
  Co  Co9  1  0.620417  0.126528  0.126528  1.0
  S  S10  1  0.738656  0.261344  0.261344  1.0
  S  S11  1  0.261344  0.738656  0.738656  1.0
  S  S12  1  0.261344  0.738656  0.261344  1.0
  S  S13  1  0.738656  0.261344  0.738656  1.0
  S  S14  1  0.261344  0.261344  0.738656  1.0
  S  S15  1  0.738656  0.738656  0.261344  1.0
  S  S16  1  0.750000  0.750000  0.750000  1.0
  S  S17  1  0.250000  0.250000  0.250000  1.0
