# generated using pymatgen
data_Hf5Sn4
_symmetry_space_group_name_H-M   'P 1'
_cell_length_a   8.77427116
_cell_length_b   8.77427126
_cell_length_c   5.91211417
_cell_angle_alpha   90.00000000
_cell_angle_beta   90.00000000
_cell_angle_gamma   119.99999962
_symmetry_Int_Tables_number   1
_chemical_formula_structural   Hf5Sn4
_chemical_formula_sum   'Hf10 Sn8'
_cell_volume   394.18087929
_cell_formula_units_Z   2
loop_
 _symmetry_equiv_pos_site_id
 _symmetry_equiv_pos_as_xyz
  1  'x, y, z'
loop_
 _atom_site_type_symbol
 _atom_site_label
 _atom_site_symmetry_multiplicity
 _atom_site_fract_x
 _atom_site_fract_y
 _atom_site_fract_z
 _atom_site_occupancy
  Hf  Hf1  1  0.333333  0.666667  0.000000  1.0
  Hf  Hf2  1  0.666667  0.333333  0.500000  1.0
  Hf  Hf3  1  0.666667  0.333333  0.000000  1.0
  Hf  Hf4  1  0.333333  0.666667  0.500000  1.0
  Hf  Hf5  1  0.282293  0.000000  0.250000  1.0
  Hf  Hf6  1  0.282293  0.282293  0.750000  1.0
  Hf  Hf7  1  0.000000  0.717707  0.750000  1.0
  Hf  Hf8  1  0.000000  0.282293  0.250000  1.0
  Hf  Hf9  1  0.717707  0.717707  0.250000  1.0
  Hf  Hf10  1  0.717707  0.000000  0.750000  1.0
  Sn  Sn11  1  0.000000  0.000000  0.000000  1.0
  Sn  Sn12  1  0.000000  0.000000  0.500000  1.0
  Sn  Sn13  1  0.613436  0.000000  0.250000  1.0
  Sn  Sn14  1  0.613436  0.613436  0.750000  1.0
  Sn  Sn15  1  0.000000  0.386564  0.750000  1.0
  Sn  Sn16  1  0.000000  0.613436  0.250000  1.0
  Sn  Sn17  1  0.386564  0.386564  0.250000  1.0
  Sn  Sn18  1  0.386564  0.000000  0.750000  1.0
