# generated using pymatgen
data_LaCrO3
_symmetry_space_group_name_H-M   'P 1'
_cell_length_a   5.52896728
_cell_length_b   5.52896728
_cell_length_c   5.52896728
_cell_angle_alpha   61.11244949
_cell_angle_beta   61.11244949
_cell_angle_gamma   61.11244949
_symmetry_Int_Tables_number   1
_chemical_formula_structural   LaCrO3
_chemical_formula_sum   'La2 Cr2 O6'
_cell_volume   122.50598342
_cell_formula_units_Z   2
loop_
 _symmetry_equiv_pos_site_id
 _symmetry_equiv_pos_as_xyz
  1  'x, y, z'
loop_
 _atom_site_type_symbol
 _atom_site_label
 _atom_site_symmetry_multiplicity
 _atom_site_fract_x
 _atom_site_fract_y
 _atom_site_fract_z
 _atom_site_occupancy
  La  La1  1  0.750000  0.750000  0.750000  1.0
  La  La2  1  0.250000  0.250000  0.250000  1.0
  Cr  Cr3  1  0.500000  0.500000  0.500000  1.0
  Cr  Cr4  1  0.000000  0.000000  0.000000  1.0
  O  O5  1  0.175631  0.750000  0.324369  1.0
  O  O6  1  0.750000  0.324369  0.175631  1.0
  O  O7  1  0.324369  0.175631  0.750000  1.0
  O  O8  1  0.824369  0.250000  0.675631  1.0
  O  O9  1  0.675631  0.824369  0.250000  1.0
  O  O10  1  0.250000  0.675631  0.824369  1.0
