# generated using pymatgen
data_Al2Te5
_symmetry_space_group_name_H-M   'P 1'
_cell_length_a   4.19346672
_cell_length_b   7.79765603
_cell_length_c   8.49258015
_cell_angle_alpha   80.63503451
_cell_angle_beta   75.70644383
_cell_angle_gamma   74.40160894
_symmetry_Int_Tables_number   1
_chemical_formula_structural   Al2Te5
_chemical_formula_sum   'Al2 Te5'
_cell_volume   257.80864058
_cell_formula_units_Z   1
loop_
 _symmetry_equiv_pos_site_id
 _symmetry_equiv_pos_as_xyz
  1  'x, y, z'
loop_
 _atom_site_type_symbol
 _atom_site_label
 _atom_site_symmetry_multiplicity
 _atom_site_fract_x
 _atom_site_fract_y
 _atom_site_fract_z
 _atom_site_occupancy
  Al  Al1  1  0.366120  0.866890  0.400871  1.0
  Al  Al2  1  0.633880  0.133110  0.599129  1.0
  Te  Te3  1  0.573620  0.727050  0.125710  1.0
  Te  Te4  1  0.426380  0.272950  0.874290  1.0
  Te  Te5  1  0.000000  0.000000  0.000000  1.0
  Te  Te6  1  0.187662  0.225131  0.399545  1.0
  Te  Te7  1  0.812338  0.774869  0.600455  1.0
