# generated using pymatgen
data_FeWO4
_symmetry_space_group_name_H-M   'P 1'
_cell_length_a   4.82178719
_cell_length_b   5.11019907
_cell_length_c   5.76578710
_cell_angle_alpha   90.00000000
_cell_angle_beta   90.00000000
_cell_angle_gamma   89.13068330
_symmetry_Int_Tables_number   1
_chemical_formula_structural   FeWO4
_chemical_formula_sum   'Fe2 W2 O8'
_cell_volume   142.05432791
_cell_formula_units_Z   2
loop_
 _symmetry_equiv_pos_site_id
 _symmetry_equiv_pos_as_xyz
  1  'x, y, z'
loop_
 _atom_site_type_symbol
 _atom_site_label
 _atom_site_symmetry_multiplicity
 _atom_site_fract_x
 _atom_site_fract_y
 _atom_site_fract_z
 _atom_site_occupancy
  Fe  Fe1  1  0.500000  0.750000  0.334024  1.0
  Fe  Fe2  1  0.500000  0.250000  0.665976  1.0
  W  W3  1  0.000000  0.750000  0.827226  1.0
  W  W4  1  0.000000  0.250000  0.172774  1.0
  O  O5  1  0.744306  0.392894  0.373698  1.0
  O  O6  1  0.255694  0.107106  0.373698  1.0
  O  O7  1  0.255694  0.607106  0.626302  1.0
  O  O8  1  0.744306  0.892894  0.626302  1.0
  O  O9  1  0.788685  0.433137  0.890160  1.0
  O  O10  1  0.211315  0.066863  0.890160  1.0
  O  O11  1  0.211315  0.566863  0.109840  1.0
  O  O12  1  0.788685  0.933137  0.109840  1.0
