# generated using pymatgen
data_V2CuO6
_symmetry_space_group_name_H-M   'P 1'
_cell_length_a   4.92908451
_cell_length_b   5.10027388
_cell_length_c   6.60280203
_cell_angle_alpha   73.53999139
_cell_angle_beta   109.43286278
_cell_angle_gamma   138.03273144
_symmetry_Int_Tables_number   1
_chemical_formula_structural   V2CuO6
_chemical_formula_sum   'V2 Cu1 O6'
_cell_volume   104.50615841
_cell_formula_units_Z   1
loop_
 _symmetry_equiv_pos_site_id
 _symmetry_equiv_pos_as_xyz
  1  'x, y, z'
loop_
 _atom_site_type_symbol
 _atom_site_label
 _atom_site_symmetry_multiplicity
 _atom_site_fract_x
 _atom_site_fract_y
 _atom_site_fract_z
 _atom_site_occupancy
  V  V1  1  0.789075  0.179128  0.342122  1.0
  V  V2  1  0.210925  0.820872  0.657878  1.0
  Cu  Cu3  1  0.000000  0.000000  0.000000  1.0
  O  O4  1  0.965072  0.031329  0.271765  1.0
  O  O5  1  0.034928  0.968671  0.728235  1.0
  O  O6  1  0.590451  0.280325  0.109709  1.0
  O  O7  1  0.409549  0.719675  0.890291  1.0
  O  O8  1  0.699816  0.308056  0.570641  1.0
  O  O9  1  0.300184  0.691944  0.429359  1.0
