# generated using pymatgen
data_TiCoO3
_symmetry_space_group_name_H-M   'P 1'
_cell_length_a   5.53580449
_cell_length_b   5.53583511
_cell_length_c   5.53576328
_cell_angle_alpha   54.91216366
_cell_angle_beta   54.91567308
_cell_angle_gamma   54.90946507
_symmetry_Int_Tables_number   1
_chemical_formula_structural   TiCoO3
_chemical_formula_sum   'Ti2 Co2 O6'
_cell_volume   105.75253610
_cell_formula_units_Z   2
loop_
 _symmetry_equiv_pos_site_id
 _symmetry_equiv_pos_as_xyz
  1  'x, y, z'
loop_
 _atom_site_type_symbol
 _atom_site_label
 _atom_site_symmetry_multiplicity
 _atom_site_fract_x
 _atom_site_fract_y
 _atom_site_fract_z
 _atom_site_occupancy
  Ti  Ti1  1  0.144122  0.144089  0.144120  1.0
  Ti  Ti2  1  0.855879  0.855910  0.855882  1.0
  Co  Co3  1  0.354496  0.354501  0.354478  1.0
  Co  Co4  1  0.645503  0.645500  0.645523  1.0
  O  O5  1  0.438032  0.050664  0.773058  1.0
  O  O6  1  0.226940  0.561970  0.949323  1.0
  O  O7  1  0.949315  0.226945  0.561974  1.0
  O  O8  1  0.773065  0.438031  0.050674  1.0
  O  O9  1  0.561967  0.949340  0.226942  1.0
  O  O10  1  0.050682  0.773051  0.438026  1.0
