# generated using pymatgen
data_ZnAu3
_symmetry_space_group_name_H-M   'P 1'
_cell_length_a   5.79965441
_cell_length_b   5.71125828
_cell_length_c   8.85011538
_cell_angle_alpha   90.00000000
_cell_angle_beta   109.12679769
_cell_angle_gamma   90.00000000
_symmetry_Int_Tables_number   1
_chemical_formula_structural   ZnAu3
_chemical_formula_sum   'Zn4 Au12'
_cell_volume   276.96238317
_cell_formula_units_Z   4
loop_
 _symmetry_equiv_pos_site_id
 _symmetry_equiv_pos_as_xyz
  1  'x, y, z'
loop_
 _atom_site_type_symbol
 _atom_site_label
 _atom_site_symmetry_multiplicity
 _atom_site_fract_x
 _atom_site_fract_y
 _atom_site_fract_z
 _atom_site_occupancy
  Zn  Zn1  1  0.636169  0.000000  0.272339  1.0
  Zn  Zn2  1  0.363831  0.000000  0.727661  1.0
  Zn  Zn3  1  0.136169  0.500000  0.272339  1.0
  Zn  Zn4  1  0.863831  0.500000  0.727661  1.0
  Au  Au5  1  0.317321  0.181478  0.000000  1.0
  Au  Au6  1  0.817321  0.318522  0.000000  1.0
  Au  Au7  1  0.182679  0.681478  0.000000  1.0
  Au  Au8  1  0.380802  0.500000  0.761604  1.0
  Au  Au9  1  0.502110  0.750000  0.500000  1.0
  Au  Au10  1  0.880802  0.000000  0.761604  1.0
  Au  Au11  1  0.497890  0.250000  0.500000  1.0
  Au  Au12  1  0.682679  0.818522  0.000000  1.0
  Au  Au13  1  0.619198  0.500000  0.238396  1.0
  Au  Au14  1  0.119198  0.000000  0.238396  1.0
  Au  Au15  1  0.997890  0.250000  0.500000  1.0
  Au  Au16  1  0.002110  0.750000  0.500000  1.0
