# generated using pymatgen
data_CoMoO4
_symmetry_space_group_name_H-M   'P 1'
_cell_length_a   4.49050718
_cell_length_b   4.99155426
_cell_length_c   5.49573191
_cell_angle_alpha   89.99981856
_cell_angle_beta   90.00127589
_cell_angle_gamma   89.68766641
_symmetry_Int_Tables_number   1
_chemical_formula_structural   CoMoO4
_chemical_formula_sum   'Co2 Mo2 O8'
_cell_volume   123.18285846
_cell_formula_units_Z   2
loop_
 _symmetry_equiv_pos_site_id
 _symmetry_equiv_pos_as_xyz
  1  'x, y, z'
loop_
 _atom_site_type_symbol
 _atom_site_label
 _atom_site_symmetry_multiplicity
 _atom_site_fract_x
 _atom_site_fract_y
 _atom_site_fract_z
 _atom_site_occupancy
  Co  Co1  1  0.500131  0.252794  0.638321  1.0
  Co  Co2  1  0.500159  0.752815  0.361695  1.0
  Mo  Mo3  1  0.001157  0.744230  0.834072  1.0
  Mo  Mo4  1  0.001184  0.244165  0.165934  1.0
  O  O5  1  0.762989  0.915641  0.122951  1.0
  O  O6  1  0.235998  0.582104  0.120130  1.0
  O  O7  1  0.723959  0.921390  0.612397  1.0
  O  O8  1  0.235986  0.082094  0.879839  1.0
  O  O9  1  0.762971  0.415618  0.877032  1.0
  O  O10  1  0.275747  0.583865  0.614237  1.0
  O  O11  1  0.723977  0.421372  0.387632  1.0
  O  O12  1  0.275741  0.083911  0.385759  1.0
