# generated using pymatgen
data_LiMnO4
_symmetry_space_group_name_H-M   'P 1'
_cell_length_a   5.07546322
_cell_length_b   5.07546323
_cell_length_c   6.58266742
_cell_angle_alpha   90.00000000
_cell_angle_beta   90.00000000
_cell_angle_gamma   113.82273483
_symmetry_Int_Tables_number   1
_chemical_formula_structural   LiMnO4
_chemical_formula_sum   'Li2 Mn2 O8'
_cell_volume   155.12406921
_cell_formula_units_Z   2
loop_
 _symmetry_equiv_pos_site_id
 _symmetry_equiv_pos_as_xyz
  1  'x, y, z'
loop_
 _atom_site_type_symbol
 _atom_site_label
 _atom_site_symmetry_multiplicity
 _atom_site_fract_x
 _atom_site_fract_y
 _atom_site_fract_z
 _atom_site_occupancy
  Li  Li1  1  0.000000  0.000000  0.000000  1.0
  Li  Li2  1  0.000000  0.000000  0.500000  1.0
  Mn  Mn3  1  0.354179  0.645821  0.750000  1.0
  Mn  Mn4  1  0.645821  0.354179  0.250000  1.0
  O  O5  1  0.245075  0.754925  0.949120  1.0
  O  O6  1  0.705748  0.776756  0.750000  1.0
  O  O7  1  0.754925  0.245075  0.050880  1.0
  O  O8  1  0.754925  0.245075  0.449120  1.0
  O  O9  1  0.245075  0.754925  0.550880  1.0
  O  O10  1  0.776756  0.705748  0.250000  1.0
  O  O11  1  0.223244  0.294252  0.750000  1.0
  O  O12  1  0.294252  0.223244  0.250000  1.0
