# generated using pymatgen
data_Mn(Ni3O4)2
_symmetry_space_group_name_H-M   'P 1'
_cell_length_a   5.95998615
_cell_length_b   5.95998614
_cell_length_c   5.95998614
_cell_angle_alpha   60.00000002
_cell_angle_beta   60.00000003
_cell_angle_gamma   60.00000004
_symmetry_Int_Tables_number   1
_chemical_formula_structural   Mn(Ni3O4)2
_chemical_formula_sum   'Mn1 Ni6 O8'
_cell_volume   149.69963883
_cell_formula_units_Z   1
loop_
 _symmetry_equiv_pos_site_id
 _symmetry_equiv_pos_as_xyz
  1  'x, y, z'
loop_
 _atom_site_type_symbol
 _atom_site_label
 _atom_site_symmetry_multiplicity
 _atom_site_fract_x
 _atom_site_fract_y
 _atom_site_fract_z
 _atom_site_occupancy
  Mn  Mn1  1  0.000000  0.000000  0.000000  1.0
  Ni  Ni2  1  0.000000  0.499999  0.500001  1.0
  Ni  Ni3  1  0.000000  0.499999  0.000000  1.0
  Ni  Ni4  1  0.500000  0.000000  0.500000  1.0
  Ni  Ni5  1  0.499999  0.499999  0.000001  1.0
  Ni  Ni6  1  0.000000  0.000000  0.500000  1.0
  Ni  Ni7  1  0.500000  0.000000  0.999999  1.0
  O  O8  1  0.229063  0.770938  0.770937  1.0
  O  O9  1  0.229063  0.770938  0.229062  1.0
  O  O10  1  0.770937  0.229062  0.770938  1.0
  O  O11  1  0.229063  0.229062  0.770937  1.0
  O  O12  1  0.770937  0.770938  0.229062  1.0
  O  O13  1  0.770937  0.229062  0.229063  1.0
  O  O14  1  0.749999  0.750001  0.750000  1.0
  O  O15  1  0.250001  0.249999  0.250000  1.0
