# generated using pymatgen
data_SbO2
_symmetry_space_group_name_H-M   'P 1'
_cell_length_a   4.92481459
_cell_length_b   5.51001794
_cell_length_c   6.57781861
_cell_angle_alpha   102.58363256
_cell_angle_beta   111.98415295
_cell_angle_gamma   90.00000001
_symmetry_Int_Tables_number   1
_chemical_formula_structural   SbO2
_chemical_formula_sum   'Sb4 O8'
_cell_volume   160.88255772
_cell_formula_units_Z   4
loop_
 _symmetry_equiv_pos_site_id
 _symmetry_equiv_pos_as_xyz
  1  'x, y, z'
loop_
 _atom_site_type_symbol
 _atom_site_label
 _atom_site_symmetry_multiplicity
 _atom_site_fract_x
 _atom_site_fract_y
 _atom_site_fract_z
 _atom_site_occupancy
  Sb  Sb1  1  0.713535  0.250000  0.000000  1.0
  Sb  Sb2  1  0.286465  0.750000  0.000000  1.0
  Sb  Sb3  1  0.500000  0.500000  0.500000  1.0
  Sb  Sb4  1  0.000000  0.000000  0.500000  1.0
  O  O5  1  0.491491  0.533610  0.811976  1.0
  O  O6  1  0.679515  0.966390  0.188024  1.0
  O  O7  1  0.508509  0.466390  0.188024  1.0
  O  O8  1  0.320485  0.033610  0.811976  1.0
  O  O9  1  0.850620  0.313774  0.622998  1.0
  O  O10  1  0.227622  0.186226  0.377002  1.0
  O  O11  1  0.149380  0.686226  0.377002  1.0
  O  O12  1  0.772378  0.813774  0.622998  1.0
