# generated using pymatgen
data_Mn2P
_symmetry_space_group_name_H-M   'P 1'
_cell_length_a   6.08547702
_cell_length_b   6.08547745
_cell_length_c   3.26202390
_cell_angle_alpha   90.00000000
_cell_angle_beta   90.00000000
_cell_angle_gamma   119.99999766
_symmetry_Int_Tables_number   1
_chemical_formula_structural   Mn2P
_chemical_formula_sum   'Mn6 P3'
_cell_volume   104.61815696
_cell_formula_units_Z   3
loop_
 _symmetry_equiv_pos_site_id
 _symmetry_equiv_pos_as_xyz
  1  'x, y, z'
loop_
 _atom_site_type_symbol
 _atom_site_label
 _atom_site_symmetry_multiplicity
 _atom_site_fract_x
 _atom_site_fract_y
 _atom_site_fract_z
 _atom_site_occupancy
  Mn  Mn1  1  0.256212  0.256212  0.000000  1.0
  Mn  Mn2  1  0.743788  0.000000  0.000000  1.0
  Mn  Mn3  1  0.599529  0.599529  0.500000  1.0
  Mn  Mn4  1  0.000000  0.743788  0.000000  1.0
  Mn  Mn5  1  0.400471  0.000000  0.500000  1.0
  Mn  Mn6  1  0.000000  0.400471  0.500000  1.0
  P  P7  1  0.333333  0.666667  0.001078  1.0
  P  P8  1  0.000000  0.000000  0.500000  1.0
  P  P9  1  0.666667  0.333333  0.998922  1.0
