# generated using pymatgen
data_UF5
_symmetry_space_group_name_H-M   'P 1'
_cell_length_a   4.53501719
_cell_length_b   5.36763943
_cell_length_c   5.36763942
_cell_angle_alpha   79.72015946
_cell_angle_beta   65.01123361
_cell_angle_gamma   65.01123365
_symmetry_Int_Tables_number   1
_chemical_formula_structural   UF5
_chemical_formula_sum   'U1 F5'
_cell_volume   107.34366523
_cell_formula_units_Z   1
loop_
 _symmetry_equiv_pos_site_id
 _symmetry_equiv_pos_as_xyz
  1  'x, y, z'
loop_
 _atom_site_type_symbol
 _atom_site_label
 _atom_site_symmetry_multiplicity
 _atom_site_fract_x
 _atom_site_fract_y
 _atom_site_fract_z
 _atom_site_occupancy
  U  U1  1  0.000000  0.000000  0.000000  1.0
  F  F2  1  0.724247  0.171439  0.380067  1.0
  F  F3  1  0.500000  0.000000  0.000000  1.0
  F  F4  1  0.275753  0.828561  0.619933  1.0
  F  F5  1  0.895686  0.380067  0.828561  1.0
  F  F6  1  0.104314  0.619933  0.171439  1.0
