# generated using pymatgen
data_Mg(AlB14)2
_symmetry_space_group_name_H-M   'P 1'
_cell_length_a   11.72464828
_cell_length_b   7.17534563
_cell_length_c   7.17324569
_cell_angle_alpha   68.57058437
_cell_angle_beta   65.80749767
_cell_angle_gamma   65.93478011
_symmetry_Int_Tables_number   1
_chemical_formula_structural   Mg(AlB14)2
_chemical_formula_sum   'Mg2 Al4 B56'
_cell_volume   488.18111376
_cell_formula_units_Z   2
loop_
 _symmetry_equiv_pos_site_id
 _symmetry_equiv_pos_as_xyz
  1  'x, y, z'
loop_
 _atom_site_type_symbol
 _atom_site_label
 _atom_site_symmetry_multiplicity
 _atom_site_fract_x
 _atom_site_fract_y
 _atom_site_fract_z
 _atom_site_occupancy
  Mg  Mg1  1  0.113017  0.112659  0.389469  1.0
  Mg  Mg2  1  0.398655  0.907450  0.597496  1.0
  Al  Al3  1  0.235313  0.522223  0.981884  1.0
  Al  Al4  1  0.499235  0.490039  0.011142  1.0
  Al  Al5  1  0.766175  0.467797  0.027543  1.0
  Al  Al6  1  0.811547  0.851152  0.643161  1.0
  B  B7  1  0.085992  0.130915  0.032665  1.0
  B  B8  1  0.040206  0.740839  0.092284  1.0
  B  B9  1  0.074991  0.470218  0.226669  1.0
  B  B10  1  0.172841  0.275781  0.031428  1.0
  B  B11  1  0.049194  0.902013  0.225956  1.0
  B  B12  1  0.112412  0.100225  0.771726  1.0
  B  B13  1  0.085900  0.535756  0.624629  1.0
  B  B14  1  0.166372  0.465114  0.374085  1.0
  B  B15  1  0.334687  0.126765  0.037049  1.0
  B  B16  1  0.140999  0.726909  0.399104  1.0
  B  B17  1  0.203254  0.274834  0.599447  1.0
  B  B18  1  0.082524  0.860147  0.808296  1.0
  B  B19  1  0.166333  0.692313  0.640790  1.0
  B  B20  1  0.204811  0.410650  0.761049  1.0
  B  B21  1  0.293716  0.586996  0.242928  1.0
  B  B22  1  0.335564  0.305397  0.362065  1.0
  B  B23  1  0.419196  0.137132  0.194683  1.0
  B  B24  1  0.298824  0.726135  0.400438  1.0
  B  B25  1  0.360696  0.275170  0.601524  1.0
  B  B26  1  0.163145  0.879569  0.966080  1.0
  B  B27  1  0.335314  0.533789  0.623398  1.0
  B  B28  1  0.417147  0.463539  0.375969  1.0
  B  B29  1  0.586812  0.123079  0.035075  1.0
  B  B30  1  0.390911  0.898534  0.226352  1.0
  B  B31  1  0.452205  0.103485  0.772783  1.0
  B  B32  1  0.326051  0.730369  0.969106  1.0
  B  B33  1  0.425069  0.530529  0.771463  1.0
  B  B34  1  0.457066  0.258026  0.913372  1.0
  B  B35  1  0.544283  0.741232  0.084380  1.0
  B  B36  1  0.577350  0.469686  0.229395  1.0
  B  B37  1  0.676798  0.268653  0.029466  1.0
  B  B38  1  0.548039  0.897718  0.226520  1.0
  B  B39  1  0.610134  0.101859  0.772795  1.0
  B  B40  1  0.415102  0.877733  0.965639  1.0
  B  B41  1  0.586412  0.532363  0.624364  1.0
  B  B42  1  0.665715  0.465847  0.376575  1.0
  B  B43  1  0.837789  0.121641  0.032921  1.0
  B  B44  1  0.640039  0.726714  0.396925  1.0
  B  B45  1  0.707478  0.270062  0.597799  1.0
  B  B46  1  0.582220  0.864686  0.803955  1.0
  B  B47  1  0.666473  0.694878  0.635029  1.0
  B  B48  1  0.708339  0.412901  0.757997  1.0
  B  B49  1  0.795403  0.593314  0.236624  1.0
  B  B50  1  0.835273  0.310972  0.356216  1.0
  B  B51  1  0.918974  0.143962  0.189315  1.0
  B  B52  1  0.797109  0.727797  0.397289  1.0
  B  B53  1  0.862030  0.272717  0.598963  1.0
  B  B54  1  0.663632  0.875782  0.968107  1.0
  B  B55  1  0.835818  0.530902  0.621581  1.0
  B  B56  1  0.916503  0.468613  0.369967  1.0
  B  B57  1  0.891248  0.903669  0.230129  1.0
  B  B58  1  0.953616  0.100845  0.773505  1.0
  B  B59  1  0.828764  0.730300  0.962308  1.0
  B  B60  1  0.926133  0.536770  0.767695  1.0
  B  B61  1  0.962164  0.261096  0.906206  1.0
  B  B62  1  0.915990  0.872736  0.966225  1.0
