# generated using pymatgen
data_Mn(FeO2)2
_symmetry_space_group_name_H-M   'P 1'
_cell_length_a   6.14464236
_cell_length_b   6.14464236
_cell_length_c   6.14464236
_cell_angle_alpha   60.00000001
_cell_angle_beta   60.00000000
_cell_angle_gamma   60.00000001
_symmetry_Int_Tables_number   1
_chemical_formula_structural   Mn(FeO2)2
_chemical_formula_sum   'Mn2 Fe4 O8'
_cell_volume   164.04947077
_cell_formula_units_Z   2
loop_
 _symmetry_equiv_pos_site_id
 _symmetry_equiv_pos_as_xyz
  1  'x, y, z'
loop_
 _atom_site_type_symbol
 _atom_site_label
 _atom_site_symmetry_multiplicity
 _atom_site_fract_x
 _atom_site_fract_y
 _atom_site_fract_z
 _atom_site_occupancy
  Mn  Mn1  1  0.125001  0.125000  0.124999  1.0
  Mn  Mn2  1  0.875000  0.875000  0.875000  1.0
  Fe  Fe3  1  0.499999  0.500001  0.500000  1.0
  Fe  Fe4  1  0.499999  0.500001  0.000000  1.0
  Fe  Fe5  1  0.000000  0.500001  0.499999  1.0
  Fe  Fe6  1  0.500000  0.000000  0.500000  1.0
  O  O7  1  0.736353  0.736354  0.736354  1.0
  O  O8  1  0.263645  0.263646  0.709062  1.0
  O  O9  1  0.263647  0.709062  0.263646  1.0
  O  O10  1  0.709062  0.263646  0.263645  1.0
  O  O11  1  0.736354  0.290938  0.736353  1.0
  O  O12  1  0.290938  0.736354  0.736354  1.0
  O  O13  1  0.263645  0.263646  0.263646  1.0
  O  O14  1  0.736353  0.736354  0.290938  1.0
