# generated using pymatgen
data_CdBiS2Br
_symmetry_space_group_name_H-M   'P 1'
_cell_length_a   4.05881479
_cell_length_b   6.90901291
_cell_length_c   9.71252757
_cell_angle_alpha   91.67546345
_cell_angle_beta   90.00000000
_cell_angle_gamma   107.08159809
_symmetry_Int_Tables_number   1
_chemical_formula_structural   CdBiS2Br
_chemical_formula_sum   'Cd2 Bi2 S4 Br2'
_cell_volume   260.22617905
_cell_formula_units_Z   2
loop_
 _symmetry_equiv_pos_site_id
 _symmetry_equiv_pos_as_xyz
  1  'x, y, z'
loop_
 _atom_site_type_symbol
 _atom_site_label
 _atom_site_symmetry_multiplicity
 _atom_site_fract_x
 _atom_site_fract_y
 _atom_site_fract_z
 _atom_site_occupancy
  Cd  Cd1  1  0.000000  0.000000  0.500000  1.0
  Cd  Cd2  1  0.000000  0.000000  0.000000  1.0
  Bi  Bi3  1  0.282376  0.564752  0.693978  1.0
  Bi  Bi4  1  0.717624  0.435248  0.306022  1.0
  S  S5  1  0.355618  0.711235  0.446090  1.0
  S  S6  1  0.918116  0.836232  0.743809  1.0
  S  S7  1  0.644382  0.288765  0.553910  1.0
  S  S8  1  0.081884  0.163768  0.256191  1.0
  Br  Br9  1  0.361717  0.723433  0.071911  1.0
  Br  Br10  1  0.638283  0.276567  0.928089  1.0
