# generated using pymatgen
data_Mg3Tl
_symmetry_space_group_name_H-M   'P 1'
_cell_length_a   6.40641610
_cell_length_b   6.42232935
_cell_length_c   5.25598396
_cell_angle_alpha   90.00000000
_cell_angle_beta   90.00000000
_cell_angle_gamma   119.99422393
_symmetry_Int_Tables_number   1
_chemical_formula_structural   Mg3Tl
_chemical_formula_sum   'Mg6 Tl2'
_cell_volume   187.29132134
_cell_formula_units_Z   2
loop_
 _symmetry_equiv_pos_site_id
 _symmetry_equiv_pos_as_xyz
  1  'x, y, z'
loop_
 _atom_site_type_symbol
 _atom_site_label
 _atom_site_symmetry_multiplicity
 _atom_site_fract_x
 _atom_site_fract_y
 _atom_site_fract_z
 _atom_site_occupancy
  Mg  Mg1  1  0.164951  0.329891  0.250000  1.0
  Mg  Mg2  1  0.164960  0.835073  0.250000  1.0
  Mg  Mg3  1  0.670119  0.835063  0.250000  1.0
  Mg  Mg4  1  0.329883  0.164939  0.749999  1.0
  Mg  Mg5  1  0.835043  0.164930  0.749999  1.0
  Mg  Mg6  1  0.835053  0.670110  0.749999  1.0
  Tl  Tl7  1  0.666662  0.333325  0.250000  1.0
  Tl  Tl8  1  0.333331  0.666668  0.749999  1.0
