# generated using pymatgen
data_VSnPt
_symmetry_space_group_name_H-M   'P 1'
_cell_length_a   4.36678121
_cell_length_b   4.36678857
_cell_length_c   4.36678010
_cell_angle_alpha   59.99964350
_cell_angle_beta   59.99989146
_cell_angle_gamma   59.99971598
_symmetry_Int_Tables_number   1
_chemical_formula_structural   VSnPt
_chemical_formula_sum   'V1 Sn1 Pt1'
_cell_volume   58.87995425
_cell_formula_units_Z   1
loop_
 _symmetry_equiv_pos_site_id
 _symmetry_equiv_pos_as_xyz
  1  'x, y, z'
loop_
 _atom_site_type_symbol
 _atom_site_label
 _atom_site_symmetry_multiplicity
 _atom_site_fract_x
 _atom_site_fract_y
 _atom_site_fract_z
 _atom_site_occupancy
  V  V1  1  0.500001  0.500000  0.499998  1.0
  Sn  Sn2  1  0.999999  0.000001  0.000001  1.0
  Pt  Pt3  1  0.250000  0.249999  0.250001  1.0
