# generated using pymatgen
data_CrS2
_symmetry_space_group_name_H-M   'P 1'
_cell_length_a   6.83299817
_cell_length_b   6.80003756
_cell_length_c   6.55300976
_cell_angle_alpha   58.64852784
_cell_angle_beta   58.87339327
_cell_angle_gamma   60.11025555
_symmetry_Int_Tables_number   1
_chemical_formula_structural   CrS2
_chemical_formula_sum   'Cr4 S8'
_cell_volume   211.34830339
_cell_formula_units_Z   4
loop_
 _symmetry_equiv_pos_site_id
 _symmetry_equiv_pos_as_xyz
  1  'x, y, z'
loop_
 _atom_site_type_symbol
 _atom_site_label
 _atom_site_symmetry_multiplicity
 _atom_site_fract_x
 _atom_site_fract_y
 _atom_site_fract_z
 _atom_site_occupancy
  Cr  Cr1  1  0.499974  0.500037  0.500008  1.0
  Cr  Cr2  1  0.999874  0.500087  0.500032  1.0
  Cr  Cr3  1  0.500068  0.500049  0.999861  1.0
  Cr  Cr4  1  0.500064  0.999834  0.500053  1.0
  S  S5  1  0.256764  0.745957  0.751246  1.0
  S  S6  1  0.745581  0.745948  0.751612  1.0
  S  S7  1  0.745500  0.256826  0.751769  1.0
  S  S8  1  0.748574  0.749636  0.252284  1.0
  S  S9  1  0.254426  0.254076  0.248537  1.0
  S  S10  1  0.743199  0.254032  0.248746  1.0
  S  S11  1  0.251494  0.250323  0.747617  1.0
  S  S12  1  0.254479  0.743198  0.248235  1.0
