# generated using pymatgen
data_Na4Al3(SiO4)3
_symmetry_space_group_name_H-M   'P 1'
_cell_length_a   8.95212250
_cell_length_b   8.95212250
_cell_length_c   8.95212250
_cell_angle_alpha   90.00000000
_cell_angle_beta   90.00000000
_cell_angle_gamma   90.00000000
_symmetry_Int_Tables_number   1
_chemical_formula_structural   Na4Al3(SiO4)3
_chemical_formula_sum   'Na8 Al6 Si6 O24'
_cell_volume   717.42754864
_cell_formula_units_Z   2
loop_
 _symmetry_equiv_pos_site_id
 _symmetry_equiv_pos_as_xyz
  1  'x, y, z'
loop_
 _atom_site_type_symbol
 _atom_site_label
 _atom_site_symmetry_multiplicity
 _atom_site_fract_x
 _atom_site_fract_y
 _atom_site_fract_z
 _atom_site_occupancy
  Na  Na1  1  0.176006  0.176006  0.176006  1.0
  Na  Na2  1  0.323994  0.676006  0.323994  1.0
  Na  Na3  1  0.323994  0.323994  0.676006  1.0
  Na  Na4  1  0.676006  0.323994  0.323994  1.0
  Na  Na5  1  0.823994  0.823994  0.176006  1.0
  Na  Na6  1  0.176006  0.823994  0.823994  1.0
  Na  Na7  1  0.823994  0.176006  0.823994  1.0
  Na  Na8  1  0.676006  0.676006  0.676006  1.0
  Al  Al9  1  0.250000  0.000000  0.500000  1.0
  Al  Al10  1  0.000000  0.500000  0.750000  1.0
  Al  Al11  1  0.000000  0.500000  0.250000  1.0
  Al  Al12  1  0.500000  0.250000  0.000000  1.0
  Al  Al13  1  0.500000  0.750000  0.000000  1.0
  Al  Al14  1  0.750000  0.000000  0.500000  1.0
  Si  Si15  1  0.250000  0.500000  0.000000  1.0
  Si  Si16  1  0.500000  0.000000  0.750000  1.0
  Si  Si17  1  0.500000  0.000000  0.250000  1.0
  Si  Si18  1  0.000000  0.250000  0.500000  1.0
  Si  Si19  1  0.000000  0.750000  0.500000  1.0
  Si  Si20  1  0.750000  0.500000  0.000000  1.0
  O  O21  1  0.149150  0.436010  0.138951  1.0
  O  O22  1  0.350850  0.638951  0.063990  1.0
  O  O23  1  0.350850  0.361049  0.936010  1.0
  O  O24  1  0.361049  0.063990  0.649150  1.0
  O  O25  1  0.638951  0.063990  0.350850  1.0
  O  O26  1  0.936010  0.350850  0.361049  1.0
  O  O27  1  0.063990  0.649150  0.361049  1.0
  O  O28  1  0.138951  0.149150  0.436010  1.0
  O  O29  1  0.436010  0.138951  0.149150  1.0
  O  O30  1  0.563990  0.861049  0.149150  1.0
  O  O31  1  0.138951  0.850850  0.563990  1.0
  O  O32  1  0.563990  0.138951  0.850850  1.0
  O  O33  1  0.861049  0.850850  0.436010  1.0
  O  O34  1  0.861049  0.149150  0.563990  1.0
  O  O35  1  0.436010  0.861049  0.850850  1.0
  O  O36  1  0.149150  0.563990  0.861049  1.0
  O  O37  1  0.850850  0.436010  0.861049  1.0
  O  O38  1  0.850850  0.563990  0.138951  1.0
  O  O39  1  0.063990  0.350850  0.638951  1.0
  O  O40  1  0.936010  0.649150  0.638951  1.0
  O  O41  1  0.361049  0.936010  0.350850  1.0
  O  O42  1  0.638951  0.936010  0.649150  1.0
  O  O43  1  0.649150  0.361049  0.063990  1.0
  O  O44  1  0.649150  0.638951  0.936010  1.0
