# generated using pymatgen
data_WO3
_symmetry_space_group_name_H-M   'P 1'
_cell_length_a   7.68868627
_cell_length_b   7.74975516
_cell_length_c   7.76990407
_cell_angle_alpha   90.00000000
_cell_angle_beta   90.00000000
_cell_angle_gamma   90.00000000
_symmetry_Int_Tables_number   1
_chemical_formula_structural   WO3
_chemical_formula_sum   'W8 O24'
_cell_volume   462.97312242
_cell_formula_units_Z   8
loop_
 _symmetry_equiv_pos_site_id
 _symmetry_equiv_pos_as_xyz
  1  'x, y, z'
loop_
 _atom_site_type_symbol
 _atom_site_label
 _atom_site_symmetry_multiplicity
 _atom_site_fract_x
 _atom_site_fract_y
 _atom_site_fract_z
 _atom_site_occupancy
  W  W1  1  0.250000  0.016318  0.485169  1.0
  W  W2  1  0.250000  0.516298  0.514808  1.0
  W  W3  1  0.250000  0.016298  0.985192  1.0
  W  W4  1  0.750000  0.483682  0.985169  1.0
  W  W5  1  0.750000  0.983682  0.514831  1.0
  W  W6  1  0.750000  0.483702  0.485192  1.0
  W  W7  1  0.750000  0.983702  0.014808  1.0
  W  W8  1  0.250000  0.516318  0.014831  1.0
  O  O9  1  0.750000  0.244049  0.499213  1.0
  O  O10  1  0.750000  0.993454  0.753250  1.0
  O  O11  1  0.500000  0.000000  0.500000  1.0
  O  O12  1  0.750000  0.744039  0.500819  1.0
  O  O13  1  0.250000  0.506546  0.253250  1.0
  O  O14  1  0.750000  0.744049  0.000787  1.0
  O  O15  1  0.000000  0.000000  0.000000  1.0
  O  O16  1  0.750000  0.244039  0.999181  1.0
  O  O17  1  0.250000  0.755961  0.000819  1.0
  O  O18  1  0.750000  0.993453  0.253237  1.0
  O  O19  1  0.250000  0.006547  0.746763  1.0
  O  O20  1  0.250000  0.755951  0.500787  1.0
  O  O21  1  0.250000  0.006546  0.246750  1.0
  O  O22  1  0.250000  0.255961  0.499181  1.0
  O  O23  1  0.000000  0.000000  0.500000  1.0
  O  O24  1  0.500000  0.500000  0.500000  1.0
  O  O25  1  0.250000  0.506547  0.753237  1.0
  O  O26  1  0.750000  0.493454  0.746750  1.0
  O  O27  1  0.750000  0.493453  0.246763  1.0
  O  O28  1  0.000000  0.500000  0.000000  1.0
  O  O29  1  0.250000  0.255951  0.999213  1.0
  O  O30  1  0.000000  0.500000  0.500000  1.0
  O  O31  1  0.500000  0.500000  0.000000  1.0
  O  O32  1  0.500000  0.000000  0.000000  1.0
