# generated using pymatgen
data_Ba(AsPd)2
_symmetry_space_group_name_H-M   'P 1'
_cell_length_a   4.54107353
_cell_length_b   4.54107300
_cell_length_c   11.00802697
_cell_angle_alpha   101.90337611
_cell_angle_beta   101.90337466
_cell_angle_gamma   90.00000748
_symmetry_Int_Tables_number   1
_chemical_formula_structural   Ba(AsPd)2
_chemical_formula_sum   'Ba2 As4 Pd4'
_cell_volume   217.12817847
_cell_formula_units_Z   2
loop_
 _symmetry_equiv_pos_site_id
 _symmetry_equiv_pos_as_xyz
  1  'x, y, z'
loop_
 _atom_site_type_symbol
 _atom_site_label
 _atom_site_symmetry_multiplicity
 _atom_site_fract_x
 _atom_site_fract_y
 _atom_site_fract_z
 _atom_site_occupancy
  Ba  Ba1  1  0.623513  0.623513  0.247025  1.0
  Ba  Ba2  1  0.376487  0.376487  0.752975  1.0
  As  As3  1  0.250000  0.750000  0.500000  1.0
  As  As4  1  0.933266  0.933266  0.866532  1.0
  As  As5  1  0.066734  0.066734  0.133468  1.0
  As  As6  1  0.750000  0.250000  0.500000  1.0
  Pd  Pd7  1  0.500000  0.000000  0.000000  1.0
  Pd  Pd8  1  0.192632  0.192632  0.385264  1.0
  Pd  Pd9  1  0.000000  0.500000  0.000000  1.0
  Pd  Pd10  1  0.807368  0.807368  0.614736  1.0
