# generated using pymatgen
data_CaCuF4
_symmetry_space_group_name_H-M   'P 1'
_cell_length_a   5.48342368
_cell_length_b   5.48342368
_cell_length_c   6.49158931
_cell_angle_alpha   114.98293579
_cell_angle_beta   114.98293580
_cell_angle_gamma   89.99999997
_symmetry_Int_Tables_number   1
_chemical_formula_structural   CaCuF4
_chemical_formula_sum   'Ca2 Cu2 F8'
_cell_volume   156.54616926
_cell_formula_units_Z   2
loop_
 _symmetry_equiv_pos_site_id
 _symmetry_equiv_pos_as_xyz
  1  'x, y, z'
loop_
 _atom_site_type_symbol
 _atom_site_label
 _atom_site_symmetry_multiplicity
 _atom_site_fract_x
 _atom_site_fract_y
 _atom_site_fract_z
 _atom_site_occupancy
  Ca  Ca1  1  0.250000  0.250000  0.500000  1.0
  Ca  Ca2  1  0.750000  0.750000  0.500000  1.0
  Cu  Cu3  1  0.000000  0.500000  0.000000  1.0
  Cu  Cu4  1  0.500000  0.000000  0.000000  1.0
  F  F5  1  0.950696  0.450696  0.257031  1.0
  F  F6  1  0.693664  0.193664  0.742969  1.0
  F  F7  1  0.049304  0.549304  0.742969  1.0
  F  F8  1  0.193664  0.049304  0.742969  1.0
  F  F9  1  0.306336  0.806336  0.257031  1.0
  F  F10  1  0.450696  0.306336  0.257031  1.0
  F  F11  1  0.806336  0.950696  0.257031  1.0
  F  F12  1  0.549304  0.693664  0.742969  1.0
