# generated using pymatgen
data_Ca3MnN3
_symmetry_space_group_name_H-M   'P 1'
_cell_length_a   8.39484200
_cell_length_b   10.26925300
_cell_length_c   5.03677500
_cell_angle_alpha   90.00000000
_cell_angle_beta   90.00000000
_cell_angle_gamma   90.00000000
_symmetry_Int_Tables_number   1
_chemical_formula_structural   Ca3MnN3
_chemical_formula_sum   'Ca12 Mn4 N12'
_cell_volume   434.21410898
_cell_formula_units_Z   4
loop_
 _symmetry_equiv_pos_site_id
 _symmetry_equiv_pos_as_xyz
  1  'x, y, z'
loop_
 _atom_site_type_symbol
 _atom_site_label
 _atom_site_symmetry_multiplicity
 _atom_site_fract_x
 _atom_site_fract_y
 _atom_site_fract_z
 _atom_site_occupancy
  Ca  Ca1  1  0.787895  0.116429  0.750000  1.0
  Ca  Ca2  1  0.500000  0.107524  0.250000  1.0
  Ca  Ca3  1  0.787895  0.883571  0.250000  1.0
  Ca  Ca4  1  0.500000  0.892476  0.750000  1.0
  Ca  Ca5  1  0.212105  0.883571  0.250000  1.0
  Ca  Ca6  1  0.212105  0.116429  0.750000  1.0
  Ca  Ca7  1  0.287895  0.616429  0.750000  1.0
  Ca  Ca8  1  0.000000  0.607524  0.250000  1.0
  Ca  Ca9  1  0.287895  0.383571  0.250000  1.0
  Ca  Ca10  1  0.000000  0.392476  0.750000  1.0
  Ca  Ca11  1  0.712105  0.383571  0.250000  1.0
  Ca  Ca12  1  0.712105  0.616429  0.750000  1.0
  Mn  Mn13  1  0.500000  0.699355  0.250000  1.0
  Mn  Mn14  1  0.500000  0.300645  0.750000  1.0
  Mn  Mn15  1  0.000000  0.199355  0.250000  1.0
  Mn  Mn16  1  0.000000  0.800645  0.750000  1.0
  N  N17  1  0.807654  0.125731  0.250000  1.0
  N  N18  1  0.500000  0.125744  0.750000  1.0
  N  N19  1  0.500000  0.874256  0.250000  1.0
  N  N20  1  0.807654  0.874269  0.750000  1.0
  N  N21  1  0.192346  0.874269  0.750000  1.0
  N  N22  1  0.192346  0.125731  0.250000  1.0
  N  N23  1  0.307654  0.625731  0.250000  1.0
  N  N24  1  0.000000  0.625744  0.750000  1.0
  N  N25  1  0.000000  0.374256  0.250000  1.0
  N  N26  1  0.307654  0.374269  0.750000  1.0
  N  N27  1  0.692346  0.374269  0.750000  1.0
  N  N28  1  0.692346  0.625731  0.250000  1.0
