# generated using pymatgen
data_Li2H2Pt
_symmetry_space_group_name_H-M   'P 1'
_cell_length_a   5.52398832
_cell_length_b   5.52398832
_cell_length_c   5.52398832
_cell_angle_alpha   144.94428940
_cell_angle_beta   148.29016247
_cell_angle_gamma   47.98579537
_symmetry_Int_Tables_number   1
_chemical_formula_structural   Li2H2Pt
_chemical_formula_sum   'Li2 H2 Pt1'
_cell_volume   50.68364057
_cell_formula_units_Z   1
loop_
 _symmetry_equiv_pos_site_id
 _symmetry_equiv_pos_as_xyz
  1  'x, y, z'
loop_
 _atom_site_type_symbol
 _atom_site_label
 _atom_site_symmetry_multiplicity
 _atom_site_fract_x
 _atom_site_fract_y
 _atom_site_fract_z
 _atom_site_occupancy
  Li  Li1  1  0.639325  0.639325  0.000000  1.0
  Li  Li2  1  0.360675  0.360675  0.000000  1.0
  H  H3  1  0.834660  0.834660  0.000000  1.0
  H  H4  1  0.165340  0.165340  0.000000  1.0
  Pt  Pt5  1  0.000000  0.000000  0.000000  1.0
