# generated using pymatgen
data_TiFeH2
_symmetry_space_group_name_H-M   'P 1'
_cell_length_a   4.66581393
_cell_length_b   4.66718069
_cell_length_c   2.78355971
_cell_angle_alpha   90.00000000
_cell_angle_beta   90.00000000
_cell_angle_gamma   97.66061224
_symmetry_Int_Tables_number   1
_chemical_formula_structural   TiFeH2
_chemical_formula_sum   'Ti2 Fe2 H4'
_cell_volume   60.07435624
_cell_formula_units_Z   2
loop_
 _symmetry_equiv_pos_site_id
 _symmetry_equiv_pos_as_xyz
  1  'x, y, z'
loop_
 _atom_site_type_symbol
 _atom_site_label
 _atom_site_symmetry_multiplicity
 _atom_site_fract_x
 _atom_site_fract_y
 _atom_site_fract_z
 _atom_site_occupancy
  Ti  Ti1  1  0.716403  0.783114  0.500000  1.0
  Ti  Ti2  1  0.283597  0.216886  0.500000  1.0
  Fe  Fe3  1  0.795098  0.294953  0.000000  1.0
  Fe  Fe4  1  0.204902  0.705047  0.000000  1.0
  H  H5  1  0.000000  0.000000  0.000000  1.0
  H  H6  1  0.500000  0.000000  0.000000  1.0
  H  H7  1  0.500000  0.500000  0.000000  1.0
  H  H8  1  0.000000  0.500000  0.500000  1.0
