# generated using pymatgen
data_LiFeF4
_symmetry_space_group_name_H-M   'P 1'
_cell_length_a   5.12507504
_cell_length_b   5.13006014
_cell_length_c   5.04237178
_cell_angle_alpha   99.17554968
_cell_angle_beta   87.58063635
_cell_angle_gamma   88.87980846
_symmetry_Int_Tables_number   1
_chemical_formula_structural   LiFeF4
_chemical_formula_sum   'Li2 Fe2 F8'
_cell_volume   130.71430337
_cell_formula_units_Z   2
loop_
 _symmetry_equiv_pos_site_id
 _symmetry_equiv_pos_as_xyz
  1  'x, y, z'
loop_
 _atom_site_type_symbol
 _atom_site_label
 _atom_site_symmetry_multiplicity
 _atom_site_fract_x
 _atom_site_fract_y
 _atom_site_fract_z
 _atom_site_occupancy
  Li  Li1  1  0.022326  0.317092  0.246728  1.0
  Li  Li2  1  0.977674  0.682908  0.753272  1.0
  Fe  Fe3  1  0.456683  0.800159  0.219369  1.0
  Fe  Fe4  1  0.543317  0.199841  0.780631  1.0
  F  F5  1  0.159868  0.681132  0.399751  1.0
  F  F6  1  0.262033  0.993592  0.955610  1.0
  F  F7  1  0.285424  0.490583  0.911446  1.0
  F  F8  1  0.357267  0.171488  0.436132  1.0
  F  F9  1  0.642733  0.828512  0.563868  1.0
  F  F10  1  0.714576  0.509417  0.088554  1.0
  F  F11  1  0.737967  0.006408  0.044390  1.0
  F  F12  1  0.840132  0.318868  0.600249  1.0
