# generated using pymatgen
data_Si
_symmetry_space_group_name_H-M   'P 1'
_cell_length_a   5.39174168
_cell_length_b   4.93489410
_cell_length_c   7.17068533
_cell_angle_alpha   69.45936015
_cell_angle_beta   108.97684722
_cell_angle_gamma   114.30823442
_symmetry_Int_Tables_number   1
_chemical_formula_structural   Si
_chemical_formula_sum   Si8
_cell_volume   159.13142533
_cell_formula_units_Z   8
loop_
 _symmetry_equiv_pos_site_id
 _symmetry_equiv_pos_as_xyz
  1  'x, y, z'
loop_
 _atom_site_type_symbol
 _atom_site_label
 _atom_site_symmetry_multiplicity
 _atom_site_fract_x
 _atom_site_fract_y
 _atom_site_fract_z
 _atom_site_occupancy
  Si  Si1  1  0.952353  0.128116  0.159081  1.0
  Si  Si2  1  0.899993  0.665468  0.744690  1.0
  Si  Si3  1  0.420365  0.211884  0.326177  1.0
  Si  Si4  1  0.732351  0.973222  0.853072  1.0
  Si  Si5  1  0.858980  0.526569  0.239693  1.0
  Si  Si6  1  0.445855  0.277063  0.643878  1.0
  Si  Si7  1  0.665347  0.864587  0.406305  1.0
  Si  Si8  1  0.009610  0.320525  0.604814  1.0
