# generated using pymatgen
data_Tc3Pd
_symmetry_space_group_name_H-M   'P 1'
_cell_length_a   5.54806282
_cell_length_b   5.54806294
_cell_length_c   4.39337129
_cell_angle_alpha   90.00000000
_cell_angle_beta   90.00000000
_cell_angle_gamma   119.99999930
_symmetry_Int_Tables_number   1
_chemical_formula_structural   Tc3Pd
_chemical_formula_sum   'Tc6 Pd2'
_cell_volume   117.11466800
_cell_formula_units_Z   2
loop_
 _symmetry_equiv_pos_site_id
 _symmetry_equiv_pos_as_xyz
  1  'x, y, z'
loop_
 _atom_site_type_symbol
 _atom_site_label
 _atom_site_symmetry_multiplicity
 _atom_site_fract_x
 _atom_site_fract_y
 _atom_site_fract_z
 _atom_site_occupancy
  Tc  Tc1  1  0.841447  0.158555  0.750001  1.0
  Tc  Tc2  1  0.317108  0.158555  0.750001  1.0
  Tc  Tc3  1  0.841445  0.682892  0.750001  1.0
  Tc  Tc4  1  0.158554  0.841445  0.249999  1.0
  Tc  Tc5  1  0.682891  0.841445  0.249999  1.0
  Tc  Tc6  1  0.158554  0.317108  0.249999  1.0
  Pd  Pd7  1  0.666667  0.333333  0.249999  1.0
  Pd  Pd8  1  0.333333  0.666667  0.750001  1.0
