# generated using pymatgen
data_Sc3Hg
_symmetry_space_group_name_H-M   'P 1'
_cell_length_a   6.35050706
_cell_length_b   6.35050792
_cell_length_c   5.23321845
_cell_angle_alpha   90.00000000
_cell_angle_beta   90.00000000
_cell_angle_gamma   120.00000104
_symmetry_Int_Tables_number   1
_chemical_formula_structural   Sc3Hg
_chemical_formula_sum   'Sc6 Hg2'
_cell_volume   182.77481633
_cell_formula_units_Z   2
loop_
 _symmetry_equiv_pos_site_id
 _symmetry_equiv_pos_as_xyz
  1  'x, y, z'
loop_
 _atom_site_type_symbol
 _atom_site_label
 _atom_site_symmetry_multiplicity
 _atom_site_fract_x
 _atom_site_fract_y
 _atom_site_fract_z
 _atom_site_occupancy
  Sc  Sc1  1  0.169860  0.339721  0.250000  1.0
  Sc  Sc2  1  0.660279  0.830139  0.250000  1.0
  Sc  Sc3  1  0.169859  0.830139  0.250000  1.0
  Sc  Sc4  1  0.830141  0.660278  0.750000  1.0
  Sc  Sc5  1  0.339722  0.169860  0.750000  1.0
  Sc  Sc6  1  0.830140  0.169860  0.750000  1.0
  Hg  Hg7  1  0.333333  0.666666  0.750000  1.0
  Hg  Hg8  1  0.666668  0.333333  0.250000  1.0
