# generated using pymatgen
data_TaNi2Te3
_symmetry_space_group_name_H-M   'P 1'
_cell_length_a   3.71615748
_cell_length_b   7.86020543
_cell_length_c   10.53373664
_cell_angle_alpha   110.31353957
_cell_angle_beta   90.00000000
_cell_angle_gamma   90.00000000
_symmetry_Int_Tables_number   1
_chemical_formula_structural   TaNi2Te3
_chemical_formula_sum   'Ta2 Ni4 Te6'
_cell_volume   288.55187291
_cell_formula_units_Z   2
loop_
 _symmetry_equiv_pos_site_id
 _symmetry_equiv_pos_as_xyz
  1  'x, y, z'
loop_
 _atom_site_type_symbol
 _atom_site_label
 _atom_site_symmetry_multiplicity
 _atom_site_fract_x
 _atom_site_fract_y
 _atom_site_fract_z
 _atom_site_occupancy
  Ta  Ta1  1  0.250000  0.211716  0.699297  1.0
  Ta  Ta2  1  0.750000  0.788284  0.300703  1.0
  Ni  Ni3  1  0.250000  0.595353  0.091909  1.0
  Ni  Ni4  1  0.750000  0.404647  0.908091  1.0
  Ni  Ni5  1  0.750000  0.962162  0.565667  1.0
  Ni  Ni6  1  0.250000  0.037838  0.434333  1.0
  Te  Te7  1  0.750000  0.057107  0.826415  1.0
  Te  Te8  1  0.250000  0.942893  0.173585  1.0
  Te  Te9  1  0.750000  0.423125  0.158015  1.0
  Te  Te10  1  0.250000  0.576875  0.841985  1.0
  Te  Te11  1  0.250000  0.723784  0.492374  1.0
  Te  Te12  1  0.750000  0.276216  0.507626  1.0
