# generated using pymatgen
data_AcHg3
_symmetry_space_group_name_H-M   'P 1'
_cell_length_a   7.14221698
_cell_length_b   7.14221611
_cell_length_c   5.20905710
_cell_angle_alpha   90.00000000
_cell_angle_beta   90.00000000
_cell_angle_gamma   120.01550792
_symmetry_Int_Tables_number   1
_chemical_formula_structural   AcHg3
_chemical_formula_sum   'Ac2 Hg6'
_cell_volume   230.08477884
_cell_formula_units_Z   2
loop_
 _symmetry_equiv_pos_site_id
 _symmetry_equiv_pos_as_xyz
  1  'x, y, z'
loop_
 _atom_site_type_symbol
 _atom_site_label
 _atom_site_symmetry_multiplicity
 _atom_site_fract_x
 _atom_site_fract_y
 _atom_site_fract_z
 _atom_site_occupancy
  Ac  Ac1  1  0.333308  0.666692  0.750000  1.0
  Ac  Ac2  1  0.666693  0.333307  0.250000  1.0
  Hg  Hg3  1  0.157730  0.315417  0.250000  1.0
  Hg  Hg4  1  0.684583  0.842270  0.250000  1.0
  Hg  Hg5  1  0.157627  0.842372  0.250000  1.0
  Hg  Hg6  1  0.842270  0.684583  0.750000  1.0
  Hg  Hg7  1  0.315416  0.157729  0.750000  1.0
  Hg  Hg8  1  0.842374  0.157627  0.750000  1.0
