# generated using pymatgen
data_Sc3Al
_symmetry_space_group_name_H-M   'P 1'
_cell_length_a   6.31479951
_cell_length_b   6.31479893
_cell_length_c   5.04770843
_cell_angle_alpha   90.00000000
_cell_angle_beta   90.00000000
_cell_angle_gamma   119.99999774
_symmetry_Int_Tables_number   1
_chemical_formula_structural   Sc3Al
_chemical_formula_sum   'Sc6 Al2'
_cell_volume   174.31870695
_cell_formula_units_Z   2
loop_
 _symmetry_equiv_pos_site_id
 _symmetry_equiv_pos_as_xyz
  1  'x, y, z'
loop_
 _atom_site_type_symbol
 _atom_site_label
 _atom_site_symmetry_multiplicity
 _atom_site_fract_x
 _atom_site_fract_y
 _atom_site_fract_z
 _atom_site_occupancy
  Sc  Sc1  1  0.828600  0.171403  0.750001  1.0
  Sc  Sc2  1  0.342805  0.171403  0.750001  1.0
  Sc  Sc3  1  0.828597  0.657195  0.750001  1.0
  Sc  Sc4  1  0.171402  0.828598  0.249999  1.0
  Sc  Sc5  1  0.657196  0.828598  0.249999  1.0
  Sc  Sc6  1  0.171402  0.342804  0.249999  1.0
  Al  Al7  1  0.666668  0.333334  0.249999  1.0
  Al  Al8  1  0.333334  0.666668  0.750001  1.0
