# generated using pymatgen
data_AcAl3
_symmetry_space_group_name_H-M   'P 1'
_cell_length_a   6.95524455
_cell_length_b   6.95524570
_cell_length_c   4.65555995
_cell_angle_alpha   90.00000000
_cell_angle_beta   90.00000000
_cell_angle_gamma   120.00000401
_symmetry_Int_Tables_number   1
_chemical_formula_structural   AcAl3
_chemical_formula_sum   'Ac2 Al6'
_cell_volume   195.04167530
_cell_formula_units_Z   2
loop_
 _symmetry_equiv_pos_site_id
 _symmetry_equiv_pos_as_xyz
  1  'x, y, z'
loop_
 _atom_site_type_symbol
 _atom_site_label
 _atom_site_symmetry_multiplicity
 _atom_site_fract_x
 _atom_site_fract_y
 _atom_site_fract_z
 _atom_site_occupancy
  Ac  Ac1  1  0.333333  0.666666  0.750001  1.0
  Ac  Ac2  1  0.666667  0.333333  0.250000  1.0
  Al  Al3  1  0.132025  0.264050  0.250000  1.0
  Al  Al4  1  0.735949  0.867973  0.250000  1.0
  Al  Al5  1  0.132025  0.867973  0.250000  1.0
  Al  Al6  1  0.867975  0.735948  0.750001  1.0
  Al  Al7  1  0.264052  0.132025  0.750001  1.0
  Al  Al8  1  0.867975  0.132025  0.750001  1.0
