# generated using pymatgen
data_Ru3W
_symmetry_space_group_name_H-M   'P 1'
_cell_length_a   5.51813946
_cell_length_b   5.51814113
_cell_length_c   4.38248998
_cell_angle_alpha   90.00000000
_cell_angle_beta   90.00000000
_cell_angle_gamma   120.00000220
_symmetry_Int_Tables_number   1
_chemical_formula_structural   Ru3W
_chemical_formula_sum   'Ru6 W2'
_cell_volume   115.56784891
_cell_formula_units_Z   2
loop_
 _symmetry_equiv_pos_site_id
 _symmetry_equiv_pos_as_xyz
  1  'x, y, z'
loop_
 _atom_site_type_symbol
 _atom_site_label
 _atom_site_symmetry_multiplicity
 _atom_site_fract_x
 _atom_site_fract_y
 _atom_site_fract_z
 _atom_site_occupancy
  Ru  Ru1  1  0.166743  0.333487  0.249999  1.0
  Ru  Ru2  1  0.666512  0.833256  0.249999  1.0
  Ru  Ru3  1  0.166745  0.833256  0.249999  1.0
  Ru  Ru4  1  0.833254  0.666510  0.750000  1.0
  Ru  Ru5  1  0.333488  0.166744  0.750000  1.0
  Ru  Ru6  1  0.833255  0.166744  0.750000  1.0
  W  W7  1  0.333334  0.666668  0.750000  1.0
  W  W8  1  0.666667  0.333333  0.249999  1.0
