# generated using pymatgen
data_Mn2CrO4
_symmetry_space_group_name_H-M   'P 1'
_cell_length_a   6.05106247
_cell_length_b   10.64360150
_cell_length_c   6.07818009
_cell_angle_alpha   91.47907171
_cell_angle_beta   61.38203573
_cell_angle_gamma   107.82645480
_symmetry_Int_Tables_number   1
_chemical_formula_structural   Mn2CrO4
_chemical_formula_sum   'Mn8 Cr4 O16'
_cell_volume   323.70579299
_cell_formula_units_Z   4
loop_
 _symmetry_equiv_pos_site_id
 _symmetry_equiv_pos_as_xyz
  1  'x, y, z'
loop_
 _atom_site_type_symbol
 _atom_site_label
 _atom_site_symmetry_multiplicity
 _atom_site_fract_x
 _atom_site_fract_y
 _atom_site_fract_z
 _atom_site_occupancy
  Mn  Mn1  1  0.998538  0.000720  0.000485  1.0
  Mn  Mn2  1  0.386625  0.062760  0.300952  1.0
  Mn  Mn3  1  0.756943  0.124380  0.618473  1.0
  Mn  Mn4  1  0.375000  0.312500  0.562500  1.0
  Mn  Mn5  1  0.993057  0.500620  0.506527  1.0
  Mn  Mn6  1  0.751462  0.624280  0.124515  1.0
  Mn  Mn7  1  0.363375  0.562240  0.824048  1.0
  Mn  Mn8  1  0.875000  0.812500  0.562500  1.0
  Cr  Cr9  1  0.375000  0.312500  0.062500  1.0
  Cr  Cr10  1  0.875000  0.312500  0.062500  1.0
  Cr  Cr11  1  0.375000  0.812500  0.062500  1.0
  Cr  Cr12  1  0.375000  0.812500  0.562500  1.0
  O  O13  1  0.175237  0.195644  0.409255  1.0
  O  O14  1  0.628407  0.186386  0.395937  1.0
  O  O15  1  0.129411  0.421632  0.175146  1.0
  O  O16  1  0.612898  0.416079  0.204713  1.0
  O  O17  1  0.137102  0.208921  0.920287  1.0
  O  O18  1  0.620589  0.203368  0.949854  1.0
  O  O19  1  0.121593  0.438614  0.729063  1.0
  O  O20  1  0.574763  0.429356  0.715745  1.0
  O  O21  1  0.624351  0.703563  0.458357  1.0
  O  O22  1  0.136951  0.708767  0.420716  1.0
  O  O23  1  0.583468  0.928528  0.217944  1.0
  O  O24  1  0.166532  0.696472  0.907056  1.0
  O  O25  1  0.160230  0.938779  0.189547  1.0
  O  O26  1  0.589770  0.686221  0.935453  1.0
  O  O27  1  0.125649  0.921437  0.666643  1.0
  O  O28  1  0.613049  0.916233  0.704284  1.0
