# generated using pymatgen
data_IrRu3
_symmetry_space_group_name_H-M   'P 1'
_cell_length_a   5.47935009
_cell_length_b   5.47934914
_cell_length_c   4.32485824
_cell_angle_alpha   90.00000000
_cell_angle_beta   90.00000000
_cell_angle_gamma   120.00000568
_symmetry_Int_Tables_number   1
_chemical_formula_structural   IrRu3
_chemical_formula_sum   'Ir2 Ru6'
_cell_volume   112.45027125
_cell_formula_units_Z   2
loop_
 _symmetry_equiv_pos_site_id
 _symmetry_equiv_pos_as_xyz
  1  'x, y, z'
loop_
 _atom_site_type_symbol
 _atom_site_label
 _atom_site_symmetry_multiplicity
 _atom_site_fract_x
 _atom_site_fract_y
 _atom_site_fract_z
 _atom_site_occupancy
  Ir  Ir1  1  0.333334  0.666667  0.749999  1.0
  Ir  Ir2  1  0.666668  0.333335  0.250001  1.0
  Ru  Ru3  1  0.165927  0.331855  0.250001  1.0
  Ru  Ru4  1  0.668145  0.834073  0.250001  1.0
  Ru  Ru5  1  0.165927  0.834073  0.250001  1.0
  Ru  Ru6  1  0.834074  0.668145  0.749999  1.0
  Ru  Ru7  1  0.331856  0.165927  0.749999  1.0
  Ru  Ru8  1  0.834074  0.165927  0.749999  1.0
