# generated using pymatgen
data_Re3Pt
_symmetry_space_group_name_H-M   'P 1'
_cell_length_a   5.59456070
_cell_length_b   5.59456039
_cell_length_c   4.43712032
_cell_angle_alpha   90.00000000
_cell_angle_beta   90.00000000
_cell_angle_gamma   120.00000785
_symmetry_Int_Tables_number   1
_chemical_formula_structural   Re3Pt
_chemical_formula_sum   'Re6 Pt2'
_cell_volume   120.27178574
_cell_formula_units_Z   2
loop_
 _symmetry_equiv_pos_site_id
 _symmetry_equiv_pos_as_xyz
  1  'x, y, z'
loop_
 _atom_site_type_symbol
 _atom_site_label
 _atom_site_symmetry_multiplicity
 _atom_site_fract_x
 _atom_site_fract_y
 _atom_site_fract_z
 _atom_site_occupancy
  Re  Re1  1  0.159275  0.318550  0.250000  1.0
  Re  Re2  1  0.681450  0.840726  0.250000  1.0
  Re  Re3  1  0.159275  0.840726  0.250000  1.0
  Re  Re4  1  0.840725  0.681448  0.749998  1.0
  Re  Re5  1  0.318551  0.159277  0.749998  1.0
  Re  Re6  1  0.840725  0.159277  0.749998  1.0
  Pt  Pt7  1  0.333333  0.666666  0.749998  1.0
  Pt  Pt8  1  0.666666  0.333332  0.250000  1.0
