# generated using pymatgen
data_Be3Ir
_symmetry_space_group_name_H-M   'P 1'
_cell_length_a   4.30665160
_cell_length_b   4.30665160
_cell_length_c   4.30665160
_cell_angle_alpha   135.28872321
_cell_angle_beta   135.28872321
_cell_angle_gamma   65.08191843
_symmetry_Int_Tables_number   1
_chemical_formula_structural   Be3Ir
_chemical_formula_sum   'Be3 Ir1'
_cell_volume   38.96614192
_cell_formula_units_Z   1
loop_
 _symmetry_equiv_pos_site_id
 _symmetry_equiv_pos_as_xyz
  1  'x, y, z'
loop_
 _atom_site_type_symbol
 _atom_site_label
 _atom_site_symmetry_multiplicity
 _atom_site_fract_x
 _atom_site_fract_y
 _atom_site_fract_z
 _atom_site_occupancy
  Be  Be1  1  0.750002  0.250000  0.500002  1.0
  Be  Be2  1  0.250000  0.750002  0.500002  1.0
  Be  Be3  1  0.499999  0.499999  0.000000  1.0
  Ir  Ir4  1  0.000000  0.000000  0.000000  1.0
