# generated using pymatgen
data_PmZn3
_symmetry_space_group_name_H-M   'P 1'
_cell_length_a   6.43755634
_cell_length_b   6.43755588
_cell_length_c   4.45191045
_cell_angle_alpha   90.00000000
_cell_angle_beta   90.00000000
_cell_angle_gamma   119.99999675
_symmetry_Int_Tables_number   1
_chemical_formula_structural   PmZn3
_chemical_formula_sum   'Pm2 Zn6'
_cell_volume   159.77878732
_cell_formula_units_Z   2
loop_
 _symmetry_equiv_pos_site_id
 _symmetry_equiv_pos_as_xyz
  1  'x, y, z'
loop_
 _atom_site_type_symbol
 _atom_site_label
 _atom_site_symmetry_multiplicity
 _atom_site_fract_x
 _atom_site_fract_y
 _atom_site_fract_z
 _atom_site_occupancy
  Pm  Pm1  1  0.333334  0.666669  0.750000  1.0
  Pm  Pm2  1  0.666667  0.333334  0.249999  1.0
  Zn  Zn3  1  0.146256  0.292511  0.249999  1.0
  Zn  Zn4  1  0.707490  0.853745  0.249999  1.0
  Zn  Zn5  1  0.146257  0.853745  0.249999  1.0
  Zn  Zn6  1  0.853746  0.707490  0.750000  1.0
  Zn  Zn7  1  0.292510  0.146254  0.750000  1.0
  Zn  Zn8  1  0.853745  0.146254  0.750000  1.0
