# generated using pymatgen
data_PrGa3
_symmetry_space_group_name_H-M   'P 1'
_cell_length_a   6.51700635
_cell_length_b   6.51700685
_cell_length_c   4.62285063
_cell_angle_alpha   90.00000000
_cell_angle_beta   90.00000000
_cell_angle_gamma   120.00000260
_symmetry_Int_Tables_number   1
_chemical_formula_structural   PrGa3
_chemical_formula_sum   'Pr2 Ga6'
_cell_volume   170.03440383
_cell_formula_units_Z   2
loop_
 _symmetry_equiv_pos_site_id
 _symmetry_equiv_pos_as_xyz
  1  'x, y, z'
loop_
 _atom_site_type_symbol
 _atom_site_label
 _atom_site_symmetry_multiplicity
 _atom_site_fract_x
 _atom_site_fract_y
 _atom_site_fract_z
 _atom_site_occupancy
  Pr  Pr1  1  0.333334  0.666667  0.750002  1.0
  Pr  Pr2  1  0.666668  0.333334  0.250001  1.0
  Ga  Ga3  1  0.142350  0.284699  0.250001  1.0
  Ga  Ga4  1  0.715301  0.857652  0.250001  1.0
  Ga  Ga5  1  0.142353  0.857652  0.250001  1.0
  Ga  Ga6  1  0.857649  0.715300  0.750002  1.0
  Ga  Ga7  1  0.284698  0.142349  0.750002  1.0
  Ga  Ga8  1  0.857649  0.142349  0.750002  1.0
