# generated using pymatgen
data_Tc3Os
_symmetry_space_group_name_H-M   'P 1'
_cell_length_a   5.53110175
_cell_length_b   5.53110016
_cell_length_c   4.38102964
_cell_angle_alpha   90.00000000
_cell_angle_beta   90.00000000
_cell_angle_gamma   119.99999725
_symmetry_Int_Tables_number   1
_chemical_formula_structural   Tc3Os
_chemical_formula_sum   'Tc6 Os2'
_cell_volume   116.07267839
_cell_formula_units_Z   2
loop_
 _symmetry_equiv_pos_site_id
 _symmetry_equiv_pos_as_xyz
  1  'x, y, z'
loop_
 _atom_site_type_symbol
 _atom_site_label
 _atom_site_symmetry_multiplicity
 _atom_site_fract_x
 _atom_site_fract_y
 _atom_site_fract_z
 _atom_site_occupancy
  Tc  Tc1  1  0.833632  0.166367  0.749999  1.0
  Tc  Tc2  1  0.332736  0.166367  0.749999  1.0
  Tc  Tc3  1  0.833632  0.667262  0.749999  1.0
  Tc  Tc4  1  0.166367  0.833632  0.249998  1.0
  Tc  Tc5  1  0.667265  0.833632  0.249998  1.0
  Tc  Tc6  1  0.166367  0.332734  0.249998  1.0
  Os  Os7  1  0.666665  0.333331  0.249998  1.0
  Os  Os8  1  0.333333  0.666666  0.749999  1.0
