# generated using pymatgen
data_Ba2GeO4
_symmetry_space_group_name_H-M   'P 1'
_cell_length_a   7.70913888
_cell_length_b   6.04681134
_cell_length_c   10.58978154
_cell_angle_alpha   90.00480818
_cell_angle_beta   90.00000000
_cell_angle_gamma   90.00000000
_symmetry_Int_Tables_number   1
_chemical_formula_structural   Ba2GeO4
_chemical_formula_sum   'Ba8 Ge4 O16'
_cell_volume   493.65016656
_cell_formula_units_Z   4
loop_
 _symmetry_equiv_pos_site_id
 _symmetry_equiv_pos_as_xyz
  1  'x, y, z'
loop_
 _atom_site_type_symbol
 _atom_site_label
 _atom_site_symmetry_multiplicity
 _atom_site_fract_x
 _atom_site_fract_y
 _atom_site_fract_z
 _atom_site_occupancy
  Ba  Ba1  1  0.006378  0.746463  0.303172  1.0
  Ba  Ba2  1  0.161393  0.254570  0.086076  1.0
  Ba  Ba3  1  0.338607  0.754570  0.586076  1.0
  Ba  Ba4  1  0.493622  0.246463  0.803172  1.0
  Ba  Ba5  1  0.506378  0.753537  0.196828  1.0
  Ba  Ba6  1  0.661393  0.245430  0.413924  1.0
  Ba  Ba7  1  0.838607  0.745430  0.913924  1.0
  Ba  Ba8  1  0.993622  0.253537  0.696828  1.0
  Ge  Ge9  1  0.223093  0.251028  0.421569  1.0
  Ge  Ge10  1  0.276907  0.751028  0.921569  1.0
  Ge  Ge11  1  0.723093  0.248972  0.078431  1.0
  Ge  Ge12  1  0.776907  0.748972  0.578431  1.0
  O  O13  1  0.006268  0.748347  0.576954  1.0
  O  O14  1  0.190873  0.494307  0.866464  1.0
  O  O15  1  0.188783  0.789123  0.076965  1.0
  O  O16  1  0.201295  0.969477  0.823948  1.0
  O  O17  1  0.298705  0.469477  0.323948  1.0
  O  O18  1  0.311217  0.289123  0.576965  1.0
  O  O19  1  0.309127  0.994307  0.366464  1.0
  O  O20  1  0.493732  0.248347  0.076954  1.0
  O  O21  1  0.506268  0.751653  0.923046  1.0
  O  O22  1  0.690873  0.005693  0.633536  1.0
  O  O23  1  0.688783  0.710877  0.423035  1.0
  O  O24  1  0.701295  0.530523  0.676052  1.0
  O  O25  1  0.798705  0.030523  0.176052  1.0
  O  O26  1  0.811217  0.210877  0.923035  1.0
  O  O27  1  0.809127  0.505693  0.133536  1.0
  O  O28  1  0.993732  0.251653  0.423046  1.0
