# generated using pymatgen
data_RbGe3
_symmetry_space_group_name_H-M   'P 1'
_cell_length_a   7.51291330
_cell_length_b   7.51291304
_cell_length_c   4.94776530
_cell_angle_alpha   90.00000000
_cell_angle_beta   90.00000000
_cell_angle_gamma   120.00000116
_symmetry_Int_Tables_number   1
_chemical_formula_structural   RbGe3
_chemical_formula_sum   'Rb2 Ge6'
_cell_volume   241.85577181
_cell_formula_units_Z   2
loop_
 _symmetry_equiv_pos_site_id
 _symmetry_equiv_pos_as_xyz
  1  'x, y, z'
loop_
 _atom_site_type_symbol
 _atom_site_label
 _atom_site_symmetry_multiplicity
 _atom_site_fract_x
 _atom_site_fract_y
 _atom_site_fract_z
 _atom_site_occupancy
  Rb  Rb1  1  0.333334  0.666667  0.750000  1.0
  Rb  Rb2  1  0.666666  0.333332  0.249999  1.0
  Ge  Ge3  1  0.117582  0.235163  0.249999  1.0
  Ge  Ge4  1  0.764838  0.882419  0.249999  1.0
  Ge  Ge5  1  0.117582  0.882419  0.249999  1.0
  Ge  Ge6  1  0.882418  0.764837  0.750000  1.0
  Ge  Ge7  1  0.235162  0.117581  0.750000  1.0
  Ge  Ge8  1  0.882418  0.117581  0.750000  1.0
