# generated using pymatgen
data_SrNiSn2
_symmetry_space_group_name_H-M   'P 1'
_cell_length_a   4.59327056
_cell_length_b   4.64932990
_cell_length_c   9.72663573
_cell_angle_alpha   76.17247892
_cell_angle_beta   90.00000000
_cell_angle_gamma   90.00000000
_symmetry_Int_Tables_number   1
_chemical_formula_structural   SrNiSn2
_chemical_formula_sum   'Sr2 Ni2 Sn4'
_cell_volume   201.69867034
_cell_formula_units_Z   2
loop_
 _symmetry_equiv_pos_site_id
 _symmetry_equiv_pos_as_xyz
  1  'x, y, z'
loop_
 _atom_site_type_symbol
 _atom_site_label
 _atom_site_symmetry_multiplicity
 _atom_site_fract_x
 _atom_site_fract_y
 _atom_site_fract_z
 _atom_site_occupancy
  Sr  Sr1  1  0.250001  0.890491  0.219018  1.0
  Sr  Sr2  1  0.750000  0.109508  0.780982  1.0
  Ni  Ni3  1  0.750000  0.318581  0.362836  1.0
  Ni  Ni4  1  0.250001  0.681418  0.637163  1.0
  Sn  Sn5  1  0.750000  0.452822  0.094355  1.0
  Sn  Sn6  1  0.250001  0.250589  0.498820  1.0
  Sn  Sn7  1  0.750000  0.749410  0.501181  1.0
  Sn  Sn8  1  0.250001  0.547177  0.905645  1.0
