# generated using pymatgen
data_Pa3Sb
_symmetry_space_group_name_H-M   'P 1'
_cell_length_a   4.60213294
_cell_length_b   4.60213294
_cell_length_c   4.60213294
_cell_angle_alpha   90.00002490
_cell_angle_beta   90.00002490
_cell_angle_gamma   90.00002490
_symmetry_Int_Tables_number   1
_chemical_formula_structural   Pa3Sb
_chemical_formula_sum   'Pa3 Sb1'
_cell_volume   97.47146182
_cell_formula_units_Z   1
loop_
 _symmetry_equiv_pos_site_id
 _symmetry_equiv_pos_as_xyz
  1  'x, y, z'
loop_
 _atom_site_type_symbol
 _atom_site_label
 _atom_site_symmetry_multiplicity
 _atom_site_fract_x
 _atom_site_fract_y
 _atom_site_fract_z
 _atom_site_occupancy
  Pa  Pa1  1  0.000000  0.499999  0.499999  1.0
  Pa  Pa2  1  0.499999  0.499999  0.000000  1.0
  Pa  Pa3  1  0.499999  0.000000  0.499999  1.0
  Sb  Sb4  1  0.000000  0.000000  0.000000  1.0
