# generated using pymatgen
data_PaPd3
_symmetry_space_group_name_H-M   'P 1'
_cell_length_a   5.72996322
_cell_length_b   5.72996290
_cell_length_c   5.07105412
_cell_angle_alpha   90.00000000
_cell_angle_beta   90.00000000
_cell_angle_gamma   120.00000186
_symmetry_Int_Tables_number   1
_chemical_formula_structural   PaPd3
_chemical_formula_sum   'Pa2 Pd6'
_cell_volume   144.18912733
_cell_formula_units_Z   2
loop_
 _symmetry_equiv_pos_site_id
 _symmetry_equiv_pos_as_xyz
  1  'x, y, z'
loop_
 _atom_site_type_symbol
 _atom_site_label
 _atom_site_symmetry_multiplicity
 _atom_site_fract_x
 _atom_site_fract_y
 _atom_site_fract_z
 _atom_site_occupancy
  Pa  Pa1  1  0.666666  0.333332  0.250001  1.0
  Pa  Pa2  1  0.333334  0.666668  0.750002  1.0
  Pd  Pd3  1  0.835458  0.164544  0.750002  1.0
  Pd  Pd4  1  0.329087  0.164544  0.750002  1.0
  Pd  Pd5  1  0.835457  0.670914  0.750002  1.0
  Pd  Pd6  1  0.164543  0.835456  0.250001  1.0
  Pd  Pd7  1  0.670913  0.835456  0.250001  1.0
  Pd  Pd8  1  0.164543  0.329086  0.250001  1.0
