# generated using pymatgen
data_Sr3(AlP2)2
_symmetry_space_group_name_H-M   'P 1'
_cell_length_a   6.70630848
_cell_length_b   8.35790928
_cell_length_c   8.35790929
_cell_angle_alpha   75.36043388
_cell_angle_beta   89.09788925
_cell_angle_gamma   89.09788929
_symmetry_Int_Tables_number   1
_chemical_formula_structural   Sr3(AlP2)2
_chemical_formula_sum   'Sr6 Al4 P8'
_cell_volume   453.16828534
_cell_formula_units_Z   2
loop_
 _symmetry_equiv_pos_site_id
 _symmetry_equiv_pos_as_xyz
  1  'x, y, z'
loop_
 _atom_site_type_symbol
 _atom_site_label
 _atom_site_symmetry_multiplicity
 _atom_site_fract_x
 _atom_site_fract_y
 _atom_site_fract_z
 _atom_site_occupancy
  Sr  Sr1  1  0.544200  0.007440  0.746651  1.0
  Sr  Sr2  1  0.955800  0.253349  0.992560  1.0
  Sr  Sr3  1  0.455800  0.992560  0.253349  1.0
  Sr  Sr4  1  0.044200  0.746651  0.007440  1.0
  Sr  Sr5  1  0.250000  0.401966  0.598034  1.0
  Sr  Sr6  1  0.750000  0.598034  0.401966  1.0
  Al  Al7  1  0.419684  0.418004  0.171596  1.0
  Al  Al8  1  0.080316  0.828404  0.581996  1.0
  Al  Al9  1  0.580316  0.581996  0.828404  1.0
  Al  Al10  1  0.919684  0.171596  0.418004  1.0
  P  P11  1  0.476293  0.295544  0.940502  1.0
  P  P12  1  0.023707  0.059498  0.704456  1.0
  P  P13  1  0.921654  0.581353  0.740064  1.0
  P  P14  1  0.578346  0.259936  0.418647  1.0
  P  P15  1  0.078346  0.418647  0.259936  1.0
  P  P16  1  0.421654  0.740064  0.581353  1.0
  P  P17  1  0.976293  0.940502  0.295544  1.0
  P  P18  1  0.523707  0.704456  0.059498  1.0
