# generated using pymatgen
data_PmAl3
_symmetry_space_group_name_H-M   'P 1'
_cell_length_a   6.44612782
_cell_length_b   6.44612738
_cell_length_c   4.63107328
_cell_angle_alpha   90.00000000
_cell_angle_beta   90.00000000
_cell_angle_gamma   120.00000740
_symmetry_Int_Tables_number   1
_chemical_formula_structural   PmAl3
_chemical_formula_sum   'Pm2 Al6'
_cell_volume   166.65181524
_cell_formula_units_Z   2
loop_
 _symmetry_equiv_pos_site_id
 _symmetry_equiv_pos_as_xyz
  1  'x, y, z'
loop_
 _atom_site_type_symbol
 _atom_site_label
 _atom_site_symmetry_multiplicity
 _atom_site_fract_x
 _atom_site_fract_y
 _atom_site_fract_z
 _atom_site_occupancy
  Pm  Pm1  1  0.333333  0.666666  0.749999  1.0
  Pm  Pm2  1  0.666667  0.333332  0.250001  1.0
  Al  Al3  1  0.142768  0.285535  0.250001  1.0
  Al  Al4  1  0.714464  0.857232  0.250001  1.0
  Al  Al5  1  0.142767  0.857232  0.250001  1.0
  Al  Al6  1  0.857233  0.714463  0.749999  1.0
  Al  Al7  1  0.285535  0.142769  0.749999  1.0
  Al  Al8  1  0.857232  0.142769  0.749999  1.0
