# generated using pymatgen
data_TaZn2
_symmetry_space_group_name_H-M   'P 1'
_cell_length_a   5.04750053
_cell_length_b   5.04751038
_cell_length_c   16.32455412
_cell_angle_alpha   90.00127159
_cell_angle_beta   89.99878455
_cell_angle_gamma   120.00398519
_symmetry_Int_Tables_number   1
_chemical_formula_structural   TaZn2
_chemical_formula_sum   'Ta8 Zn16'
_cell_volume   360.17047779
_cell_formula_units_Z   8
loop_
 _symmetry_equiv_pos_site_id
 _symmetry_equiv_pos_as_xyz
  1  'x, y, z'
loop_
 _atom_site_type_symbol
 _atom_site_label
 _atom_site_symmetry_multiplicity
 _atom_site_fract_x
 _atom_site_fract_y
 _atom_site_fract_z
 _atom_site_occupancy
  Ta  Ta1  1  0.999987  0.999986  0.091326  1.0
  Ta  Ta2  1  0.000010  0.000004  0.591297  1.0
  Ta  Ta3  1  0.999946  0.000017  0.908657  1.0
  Ta  Ta4  1  0.000013  0.000001  0.408725  1.0
  Ta  Ta5  1  0.333296  0.666681  0.843654  1.0
  Ta  Ta6  1  0.666650  0.333362  0.343627  1.0
  Ta  Ta7  1  0.666675  0.333308  0.156398  1.0
  Ta  Ta8  1  0.333351  0.666653  0.656337  1.0
  Zn  Zn9  1  0.160512  0.321014  0.250002  1.0
  Zn  Zn10  1  0.839516  0.679015  0.749996  1.0
  Zn  Zn11  1  0.678987  0.839472  0.250002  1.0
  Zn  Zn12  1  0.160544  0.839478  0.249993  1.0
  Zn  Zn13  1  0.839476  0.160495  0.749999  1.0
  Zn  Zn14  1  0.320965  0.160479  0.749986  1.0
  Zn  Zn15  1  0.499957  0.000013  0.999999  1.0
  Zn  Zn16  1  0.500015  0.000019  0.500003  1.0
  Zn  Zn17  1  0.999954  0.499986  0.999999  1.0
  Zn  Zn18  1  0.499982  0.500011  0.999998  1.0
  Zn  Zn19  1  0.500017  0.500004  0.499999  1.0
  Zn  Zn20  1  0.000002  0.500006  0.500002  1.0
  Zn  Zn21  1  0.333332  0.666647  0.127012  1.0
  Zn  Zn22  1  0.666683  0.333330  0.627003  1.0
  Zn  Zn23  1  0.666594  0.333342  0.872991  1.0
  Zn  Zn24  1  0.333335  0.666678  0.372992  1.0
