# generated using pymatgen
data_PmCu3
_symmetry_space_group_name_H-M   'P 1'
_cell_length_a   6.19786053
_cell_length_b   6.19786090
_cell_length_c   4.30588717
_cell_angle_alpha   90.00000000
_cell_angle_beta   90.00000000
_cell_angle_gamma   119.99999809
_symmetry_Int_Tables_number   1
_chemical_formula_structural   PmCu3
_chemical_formula_sum   'Pm2 Cu6'
_cell_volume   143.24415497
_cell_formula_units_Z   2
loop_
 _symmetry_equiv_pos_site_id
 _symmetry_equiv_pos_as_xyz
  1  'x, y, z'
loop_
 _atom_site_type_symbol
 _atom_site_label
 _atom_site_symmetry_multiplicity
 _atom_site_fract_x
 _atom_site_fract_y
 _atom_site_fract_z
 _atom_site_occupancy
  Pm  Pm1  1  0.333334  0.666668  0.750001  1.0
  Pm  Pm2  1  0.666667  0.333334  0.249999  1.0
  Cu  Cu3  1  0.865170  0.134831  0.750001  1.0
  Cu  Cu4  1  0.269661  0.134831  0.750001  1.0
  Cu  Cu5  1  0.865167  0.730338  0.750001  1.0
  Cu  Cu6  1  0.134831  0.865168  0.249999  1.0
  Cu  Cu7  1  0.730337  0.865168  0.249999  1.0
  Cu  Cu8  1  0.134831  0.269663  0.249999  1.0
