# generated using pymatgen
data_Ho3In
_symmetry_space_group_name_H-M   'P 1'
_cell_length_a   4.82449596
_cell_length_b   4.82450633
_cell_length_c   4.82453080
_cell_angle_alpha   90.00061529
_cell_angle_beta   89.99975820
_cell_angle_gamma   90.00015570
_symmetry_Int_Tables_number   1
_chemical_formula_structural   Ho3In
_chemical_formula_sum   'Ho3 In1'
_cell_volume   112.29486849
_cell_formula_units_Z   1
loop_
 _symmetry_equiv_pos_site_id
 _symmetry_equiv_pos_as_xyz
  1  'x, y, z'
loop_
 _atom_site_type_symbol
 _atom_site_label
 _atom_site_symmetry_multiplicity
 _atom_site_fract_x
 _atom_site_fract_y
 _atom_site_fract_z
 _atom_site_occupancy
  Ho  Ho1  1  0.999999  0.500000  0.500000  1.0
  Ho  Ho2  1  0.500001  0.000000  0.500000  1.0
  Ho  Ho3  1  0.500001  0.500001  0.000000  1.0
  In  In4  1  0.000000  0.999999  0.000001  1.0
