# generated using pymatgen
data_HoCl2
_symmetry_space_group_name_H-M   'P 1'
_cell_length_a   6.87110600
_cell_length_b   6.87110600
_cell_length_c   3.45947011
_cell_angle_alpha   90.00000000
_cell_angle_beta   90.00000000
_cell_angle_gamma   90.00000000
_symmetry_Int_Tables_number   1
_chemical_formula_structural   HoCl2
_chemical_formula_sum   'Ho2 Cl4'
_cell_volume   163.32884070
_cell_formula_units_Z   2
loop_
 _symmetry_equiv_pos_site_id
 _symmetry_equiv_pos_as_xyz
  1  'x, y, z'
loop_
 _atom_site_type_symbol
 _atom_site_label
 _atom_site_symmetry_multiplicity
 _atom_site_fract_x
 _atom_site_fract_y
 _atom_site_fract_z
 _atom_site_occupancy
  Ho  Ho1  1  0.000000  0.000000  0.000000  1.0
  Ho  Ho2  1  0.500001  0.500001  0.500000  1.0
  Cl  Cl3  1  0.280476  0.280476  0.000000  1.0
  Cl  Cl4  1  0.719524  0.719524  0.000000  1.0
  Cl  Cl5  1  0.780475  0.219524  0.500000  1.0
  Cl  Cl6  1  0.219524  0.780475  0.500000  1.0
