# generated using pymatgen
data_Y4CuTe8
_symmetry_space_group_name_H-M   'P 1'
_cell_length_a   6.10247588
_cell_length_b   15.39983921
_cell_length_c   11.28079974
_cell_angle_alpha   46.66344363
_cell_angle_beta   89.95393816
_cell_angle_gamma   89.97224621
_symmetry_Int_Tables_number   1
_chemical_formula_structural   Y4CuTe8
_chemical_formula_sum   'Y8 Cu2 Te16'
_cell_volume   771.07480804
_cell_formula_units_Z   2
loop_
 _symmetry_equiv_pos_site_id
 _symmetry_equiv_pos_as_xyz
  1  'x, y, z'
loop_
 _atom_site_type_symbol
 _atom_site_label
 _atom_site_symmetry_multiplicity
 _atom_site_fract_x
 _atom_site_fract_y
 _atom_site_fract_z
 _atom_site_occupancy
  Y  Y1  1  0.246607  0.409561  0.932280  1.0
  Y  Y2  1  0.252493  0.911684  0.932285  1.0
  Y  Y3  1  0.245462  0.407377  0.439839  1.0
  Y  Y4  1  0.256904  0.905860  0.443215  1.0
  Y  Y5  1  0.745635  0.091194  0.061256  1.0
  Y  Y6  1  0.754028  0.097575  0.563989  1.0
  Y  Y7  1  0.756381  0.592375  0.060874  1.0
  Y  Y8  1  0.744162  0.596884  0.565361  1.0
  Cu  Cu9  1  0.550271  0.188962  0.213029  1.0
  Cu  Cu10  1  0.945100  0.692066  0.210246  1.0
  Te  Te11  1  0.002340  0.341612  0.249315  1.0
  Te  Te12  1  0.998104  0.837667  0.251945  1.0
  Te  Te13  1  0.251576  0.014719  0.588022  1.0
  Te  Te14  1  0.247674  0.514834  0.587277  1.0
  Te  Te15  1  0.249093  0.147488  0.085965  1.0
  Te  Te16  1  0.251447  0.650075  0.084946  1.0
  Te  Te17  1  0.501535  0.338023  0.249681  1.0
  Te  Te18  1  0.503156  0.165346  0.746617  1.0
  Te  Te19  1  0.497794  0.841288  0.250331  1.0
  Te  Te20  1  0.496845  0.660512  0.754246  1.0
  Te  Te21  1  0.749784  0.483207  0.419298  1.0
  Te  Te22  1  0.752369  0.348466  0.912536  1.0
  Te  Te23  1  0.751669  0.981903  0.420466  1.0
  Te  Te24  1  0.746984  0.849916  0.912354  1.0
  Te  Te25  1  0.004078  0.162788  0.751207  1.0
  Te  Te26  1  0.997118  0.663293  0.748879  1.0
