# generated using pymatgen
data_PaCo3
_symmetry_space_group_name_H-M   'P 1'
_cell_length_a   3.80406794
_cell_length_b   3.80413521
_cell_length_c   3.80377829
_cell_angle_alpha   89.99997289
_cell_angle_beta   89.99995662
_cell_angle_gamma   89.99998328
_symmetry_Int_Tables_number   1
_chemical_formula_structural   PaCo3
_chemical_formula_sum   'Pa1 Co3'
_cell_volume   55.04519376
_cell_formula_units_Z   1
loop_
 _symmetry_equiv_pos_site_id
 _symmetry_equiv_pos_as_xyz
  1  'x, y, z'
loop_
 _atom_site_type_symbol
 _atom_site_label
 _atom_site_symmetry_multiplicity
 _atom_site_fract_x
 _atom_site_fract_y
 _atom_site_fract_z
 _atom_site_occupancy
  Pa  Pa1  1  0.000000  0.000000  0.000000  1.0
  Co  Co2  1  0.500000  0.000000  0.500000  1.0
  Co  Co3  1  0.500000  0.500000  0.000000  1.0
  Co  Co4  1  0.000000  0.500000  0.500000  1.0
