# generated using pymatgen
data_YbSiPt2
_symmetry_space_group_name_H-M   'P 1'
_cell_length_a   7.31337689
_cell_length_b   6.92625917
_cell_length_c   5.54028719
_cell_angle_alpha   90.00000000
_cell_angle_beta   90.00000000
_cell_angle_gamma   90.00000000
_symmetry_Int_Tables_number   1
_chemical_formula_structural   YbSiPt2
_chemical_formula_sum   'Yb4 Si4 Pt8'
_cell_volume   280.63961179
_cell_formula_units_Z   4
loop_
 _symmetry_equiv_pos_site_id
 _symmetry_equiv_pos_as_xyz
  1  'x, y, z'
loop_
 _atom_site_type_symbol
 _atom_site_label
 _atom_site_symmetry_multiplicity
 _atom_site_fract_x
 _atom_site_fract_y
 _atom_site_fract_z
 _atom_site_occupancy
  Yb  Yb1  1  0.479576  0.750000  0.129387  1.0
  Yb  Yb2  1  0.979576  0.750000  0.370613  1.0
  Yb  Yb3  1  0.020425  0.250000  0.629387  1.0
  Yb  Yb4  1  0.520424  0.250000  0.870613  1.0
  Si  Si5  1  0.876363  0.250000  0.127694  1.0
  Si  Si6  1  0.376364  0.250000  0.372306  1.0
  Si  Si7  1  0.623637  0.750000  0.627694  1.0
  Si  Si8  1  0.123636  0.750000  0.872305  1.0
  Pt  Pt9  1  0.173386  0.051813  0.102201  1.0
  Pt  Pt10  1  0.173386  0.448186  0.102201  1.0
  Pt  Pt11  1  0.673386  0.051813  0.397797  1.0
  Pt  Pt12  1  0.673386  0.448186  0.397797  1.0
  Pt  Pt13  1  0.326614  0.551813  0.602201  1.0
  Pt  Pt14  1  0.326614  0.948187  0.602201  1.0
  Pt  Pt15  1  0.826613  0.551813  0.897797  1.0
  Pt  Pt16  1  0.826613  0.948187  0.897797  1.0
