# generated using pymatgen
data_Na3In
_symmetry_space_group_name_H-M   'P 1'
_cell_length_a   6.09241791
_cell_length_b   6.09241791
_cell_length_c   6.09241791
_cell_angle_alpha   132.60057910
_cell_angle_beta   132.60057910
_cell_angle_gamma   69.28211552
_symmetry_Int_Tables_number   1
_chemical_formula_structural   Na3In
_chemical_formula_sum   'Na3 In1'
_cell_volume   120.23066423
_cell_formula_units_Z   1
loop_
 _symmetry_equiv_pos_site_id
 _symmetry_equiv_pos_as_xyz
  1  'x, y, z'
loop_
 _atom_site_type_symbol
 _atom_site_label
 _atom_site_symmetry_multiplicity
 _atom_site_fract_x
 _atom_site_fract_y
 _atom_site_fract_z
 _atom_site_occupancy
  Na  Na1  1  0.749998  0.250000  0.499998  1.0
  Na  Na2  1  0.250000  0.749998  0.499998  1.0
  Na  Na3  1  0.500000  0.500000  0.000000  1.0
  In  In4  1  0.000000  0.000000  0.000000  1.0
