# generated using pymatgen
data_Na3ZrF8
_symmetry_space_group_name_H-M   'P 1'
_cell_length_a   5.41298646
_cell_length_b   5.41298646
_cell_length_c   6.63889405
_cell_angle_alpha   114.05869620
_cell_angle_beta   114.05869620
_cell_angle_gamma   90.00000000
_symmetry_Int_Tables_number   1
_chemical_formula_structural   Na3ZrF8
_chemical_formula_sum   'Na3 Zr1 F8'
_cell_volume   158.93879839
_cell_formula_units_Z   1
loop_
 _symmetry_equiv_pos_site_id
 _symmetry_equiv_pos_as_xyz
  1  'x, y, z'
loop_
 _atom_site_type_symbol
 _atom_site_label
 _atom_site_symmetry_multiplicity
 _atom_site_fract_x
 _atom_site_fract_y
 _atom_site_fract_z
 _atom_site_occupancy
  Na  Na1  1  0.500000  0.500000  0.000000  1.0
  Na  Na2  1  0.750000  0.250000  0.500000  1.0
  Na  Na3  1  0.250000  0.750000  0.500000  1.0
  Zr  Zr4  1  0.000000  0.000000  0.000000  1.0
  F  F5  1  0.344653  0.344653  0.230282  1.0
  F  F6  1  0.885631  0.344653  0.230282  1.0
  F  F7  1  0.344653  0.885631  0.230282  1.0
  F  F8  1  0.885631  0.885631  0.230282  1.0
  F  F9  1  0.114369  0.114369  0.769718  1.0
  F  F10  1  0.655348  0.114369  0.769718  1.0
  F  F11  1  0.114369  0.655348  0.769718  1.0
  F  F12  1  0.655348  0.655348  0.769718  1.0
