# generated using pymatgen
data_ZrZn3
_symmetry_space_group_name_H-M   'P 1'
_cell_length_a   5.89016738
_cell_length_b   5.89016812
_cell_length_c   4.38542534
_cell_angle_alpha   90.00000000
_cell_angle_beta   90.00000000
_cell_angle_gamma   120.00000177
_symmetry_Int_Tables_number   1
_chemical_formula_structural   ZrZn3
_chemical_formula_sum   'Zr2 Zn6'
_cell_volume   131.76427377
_cell_formula_units_Z   2
loop_
 _symmetry_equiv_pos_site_id
 _symmetry_equiv_pos_as_xyz
  1  'x, y, z'
loop_
 _atom_site_type_symbol
 _atom_site_label
 _atom_site_symmetry_multiplicity
 _atom_site_fract_x
 _atom_site_fract_y
 _atom_site_fract_z
 _atom_site_occupancy
  Zr  Zr1  1  0.333334  0.666667  0.749998  1.0
  Zr  Zr2  1  0.666666  0.333332  0.249998  1.0
  Zn  Zn3  1  0.158353  0.316706  0.249998  1.0
  Zn  Zn4  1  0.683292  0.841647  0.249998  1.0
  Zn  Zn5  1  0.158354  0.841647  0.249998  1.0
  Zn  Zn6  1  0.841647  0.683292  0.749998  1.0
  Zn  Zn7  1  0.316709  0.158354  0.749998  1.0
  Zn  Zn8  1  0.841647  0.158354  0.749998  1.0
