# generated using pymatgen
data_MgAg3
_symmetry_space_group_name_H-M   'P 1'
_cell_length_a   5.88055492
_cell_length_b   5.88055531
_cell_length_c   4.83298156
_cell_angle_alpha   90.00000000
_cell_angle_beta   90.00000000
_cell_angle_gamma   120.00000343
_symmetry_Int_Tables_number   1
_chemical_formula_structural   MgAg3
_chemical_formula_sum   'Mg2 Ag6'
_cell_volume   144.73794568
_cell_formula_units_Z   2
loop_
 _symmetry_equiv_pos_site_id
 _symmetry_equiv_pos_as_xyz
  1  'x, y, z'
loop_
 _atom_site_type_symbol
 _atom_site_label
 _atom_site_symmetry_multiplicity
 _atom_site_fract_x
 _atom_site_fract_y
 _atom_site_fract_z
 _atom_site_occupancy
  Mg  Mg1  1  0.666667  0.333334  0.250000  1.0
  Mg  Mg2  1  0.333334  0.666667  0.750001  1.0
  Ag  Ag3  1  0.166774  0.333548  0.250000  1.0
  Ag  Ag4  1  0.666452  0.833227  0.250000  1.0
  Ag  Ag5  1  0.166775  0.833227  0.250000  1.0
  Ag  Ag6  1  0.833227  0.166774  0.750001  1.0
  Ag  Ag7  1  0.333548  0.166774  0.750001  1.0
  Ag  Ag8  1  0.833226  0.666453  0.750001  1.0
