# generated using pymatgen
data_MgAu3
_symmetry_space_group_name_H-M   'P 1'
_cell_length_a   5.85863816
_cell_length_b   5.85863828
_cell_length_c   4.81589076
_cell_angle_alpha   90.00000000
_cell_angle_beta   90.00000000
_cell_angle_gamma   120.00000496
_symmetry_Int_Tables_number   1
_chemical_formula_structural   MgAu3
_chemical_formula_sum   'Mg2 Au6'
_cell_volume   143.15304757
_cell_formula_units_Z   2
loop_
 _symmetry_equiv_pos_site_id
 _symmetry_equiv_pos_as_xyz
  1  'x, y, z'
loop_
 _atom_site_type_symbol
 _atom_site_label
 _atom_site_symmetry_multiplicity
 _atom_site_fract_x
 _atom_site_fract_y
 _atom_site_fract_z
 _atom_site_occupancy
  Mg  Mg1  1  0.666667  0.333334  0.250001  1.0
  Mg  Mg2  1  0.333334  0.666668  0.750001  1.0
  Au  Au3  1  0.168247  0.336494  0.250001  1.0
  Au  Au4  1  0.663506  0.831753  0.250001  1.0
  Au  Au5  1  0.168247  0.831753  0.250001  1.0
  Au  Au6  1  0.831753  0.168247  0.750001  1.0
  Au  Au7  1  0.336493  0.168247  0.750001  1.0
  Au  Au8  1  0.831753  0.663506  0.750001  1.0
