# generated using pymatgen
data_Mg3Sc
_symmetry_space_group_name_H-M   'P 1'
_cell_length_a   6.45130224
_cell_length_b   6.45130211
_cell_length_c   5.09515072
_cell_angle_alpha   90.00000000
_cell_angle_beta   90.00000000
_cell_angle_gamma   120.00000065
_symmetry_Int_Tables_number   1
_chemical_formula_structural   Mg3Sc
_chemical_formula_sum   'Mg6 Sc2'
_cell_volume   183.64640586
_cell_formula_units_Z   2
loop_
 _symmetry_equiv_pos_site_id
 _symmetry_equiv_pos_as_xyz
  1  'x, y, z'
loop_
 _atom_site_type_symbol
 _atom_site_label
 _atom_site_symmetry_multiplicity
 _atom_site_fract_x
 _atom_site_fract_y
 _atom_site_fract_z
 _atom_site_occupancy
  Mg  Mg1  1  0.166777  0.333555  0.250001  1.0
  Mg  Mg2  1  0.166777  0.833224  0.250001  1.0
  Mg  Mg3  1  0.666446  0.833224  0.250001  1.0
  Mg  Mg4  1  0.333555  0.166777  0.750000  1.0
  Mg  Mg5  1  0.833223  0.166777  0.750000  1.0
  Mg  Mg6  1  0.833223  0.666446  0.750000  1.0
  Sc  Sc7  1  0.666667  0.333333  0.250001  1.0
  Sc  Sc8  1  0.333333  0.666666  0.750000  1.0
