# generated using pymatgen
data_LaAu3
_symmetry_space_group_name_H-M   'P 1'
_cell_length_a   6.64206184
_cell_length_b   6.64206093
_cell_length_c   4.80956831
_cell_angle_alpha   90.00000000
_cell_angle_beta   90.00000000
_cell_angle_gamma   119.99999869
_symmetry_Int_Tables_number   1
_chemical_formula_structural   LaAu3
_chemical_formula_sum   'La2 Au6'
_cell_volume   183.75641303
_cell_formula_units_Z   2
loop_
 _symmetry_equiv_pos_site_id
 _symmetry_equiv_pos_as_xyz
  1  'x, y, z'
loop_
 _atom_site_type_symbol
 _atom_site_label
 _atom_site_symmetry_multiplicity
 _atom_site_fract_x
 _atom_site_fract_y
 _atom_site_fract_z
 _atom_site_occupancy
  La  La1  1  0.666667  0.333334  0.250002  1.0
  La  La2  1  0.333334  0.666667  0.750001  1.0
  Au  Au3  1  0.153122  0.846878  0.250002  1.0
  Au  Au4  1  0.693753  0.846878  0.250002  1.0
  Au  Au5  1  0.153123  0.306247  0.250002  1.0
  Au  Au6  1  0.846876  0.693753  0.750001  1.0
  Au  Au7  1  0.306247  0.153123  0.750001  1.0
  Au  Au8  1  0.846876  0.153123  0.750001  1.0
