# generated using pymatgen
data_MgSc2
_symmetry_space_group_name_H-M   'P 1'
_cell_length_a   3.32941642
_cell_length_b   8.50019126
_cell_length_c   5.15151558
_cell_angle_alpha   90.00000000
_cell_angle_beta   90.00000000
_cell_angle_gamma   78.70599396
_symmetry_Int_Tables_number   1
_chemical_formula_structural   MgSc2
_chemical_formula_sum   'Mg2 Sc4'
_cell_volume   142.96814734
_cell_formula_units_Z   2
loop_
 _symmetry_equiv_pos_site_id
 _symmetry_equiv_pos_as_xyz
  1  'x, y, z'
loop_
 _atom_site_type_symbol
 _atom_site_label
 _atom_site_symmetry_multiplicity
 _atom_site_fract_x
 _atom_site_fract_y
 _atom_site_fract_z
 _atom_site_occupancy
  Mg  Mg1  1  0.329736  0.340524  0.000000  1.0
  Mg  Mg2  1  0.448039  0.103920  0.500000  1.0
  Sc  Sc3  1  0.994241  0.011518  0.000000  1.0
  Sc  Sc4  1  0.664420  0.671162  0.000000  1.0
  Sc  Sc5  1  0.783537  0.432927  0.500000  1.0
  Sc  Sc6  1  0.113357  0.773283  0.500000  1.0
