# generated using pymatgen
data_Mg3Ag
_symmetry_space_group_name_H-M   'P 1'
_cell_length_a   6.16754075
_cell_length_b   6.16754199
_cell_length_c   4.91620558
_cell_angle_alpha   90.00000000
_cell_angle_beta   90.00000000
_cell_angle_gamma   119.99999339
_symmetry_Int_Tables_number   1
_chemical_formula_structural   Mg3Ag
_chemical_formula_sum   'Mg6 Ag2'
_cell_volume   161.95144920
_cell_formula_units_Z   2
loop_
 _symmetry_equiv_pos_site_id
 _symmetry_equiv_pos_as_xyz
  1  'x, y, z'
loop_
 _atom_site_type_symbol
 _atom_site_label
 _atom_site_symmetry_multiplicity
 _atom_site_fract_x
 _atom_site_fract_y
 _atom_site_fract_z
 _atom_site_occupancy
  Mg  Mg1  1  0.170450  0.340901  0.249998  1.0
  Mg  Mg2  1  0.170451  0.829550  0.249998  1.0
  Mg  Mg3  1  0.659098  0.829550  0.249998  1.0
  Mg  Mg4  1  0.340901  0.170450  0.749999  1.0
  Mg  Mg5  1  0.829550  0.170450  0.749999  1.0
  Mg  Mg6  1  0.829550  0.659098  0.749999  1.0
  Ag  Ag7  1  0.666667  0.333333  0.249998  1.0
  Ag  Ag8  1  0.333333  0.666666  0.749999  1.0
