# generated using pymatgen
data_Nd2BC
_symmetry_space_group_name_H-M   'P 1'
_cell_length_a   6.87248187
_cell_length_b   6.87248187
_cell_length_c   9.56957267
_cell_angle_alpha   50.67569445
_cell_angle_beta   129.32430555
_cell_angle_gamma   149.10773859
_symmetry_Int_Tables_number   1
_chemical_formula_structural   Nd2BC
_chemical_formula_sum   'Nd4 B2 C2'
_cell_volume   174.85436582
_cell_formula_units_Z   2
loop_
 _symmetry_equiv_pos_site_id
 _symmetry_equiv_pos_as_xyz
  1  'x, y, z'
loop_
 _atom_site_type_symbol
 _atom_site_label
 _atom_site_symmetry_multiplicity
 _atom_site_fract_x
 _atom_site_fract_y
 _atom_site_fract_z
 _atom_site_occupancy
  Nd  Nd1  1  0.793362  0.206638  0.381848  1.0
  Nd  Nd2  1  0.206639  0.793361  0.618151  1.0
  Nd  Nd3  1  0.440216  0.559784  0.139472  1.0
  Nd  Nd4  1  0.559784  0.440216  0.860529  1.0
  B  B5  1  0.075484  0.924516  0.108096  1.0
  B  B6  1  0.924514  0.075486  0.891903  1.0
  C  C7  1  0.873621  0.126379  0.698165  1.0
  C  C8  1  0.126380  0.873620  0.301834  1.0
