# generated using pymatgen
data_MgCo2
_symmetry_space_group_name_H-M   'P 1'
_cell_length_a   4.83339824
_cell_length_b   4.83513511
_cell_length_c   7.85542878
_cell_angle_alpha   90.00000000
_cell_angle_beta   90.00000000
_cell_angle_gamma   119.98811784
_symmetry_Int_Tables_number   1
_chemical_formula_structural   MgCo2
_chemical_formula_sum   'Mg4 Co8'
_cell_volume   159.00607150
_cell_formula_units_Z   4
loop_
 _symmetry_equiv_pos_site_id
 _symmetry_equiv_pos_as_xyz
  1  'x, y, z'
loop_
 _atom_site_type_symbol
 _atom_site_label
 _atom_site_symmetry_multiplicity
 _atom_site_fract_x
 _atom_site_fract_y
 _atom_site_fract_z
 _atom_site_occupancy
  Mg  Mg1  1  0.333314  0.666629  0.063343  1.0
  Mg  Mg2  1  0.333314  0.666629  0.436657  1.0
  Mg  Mg3  1  0.666687  0.333372  0.563342  1.0
  Mg  Mg4  1  0.666687  0.333372  0.936657  1.0
  Co  Co5  1  0.000000  0.000000  0.000000  1.0
  Co  Co6  1  0.341984  0.171001  0.250000  1.0
  Co  Co7  1  0.829018  0.171001  0.250000  1.0
  Co  Co8  1  0.829037  0.658073  0.250000  1.0
  Co  Co9  1  0.000000  0.000000  0.500000  1.0
  Co  Co10  1  0.170964  0.341928  0.750000  1.0
  Co  Co11  1  0.170983  0.829000  0.750000  1.0
  Co  Co12  1  0.658018  0.829000  0.750000  1.0
