# generated using pymatgen
data_MnIr3
_symmetry_space_group_name_H-M   'P 1'
_cell_length_a   5.45186986
_cell_length_b   5.45187078
_cell_length_c   4.33290815
_cell_angle_alpha   90.00000000
_cell_angle_beta   90.00000000
_cell_angle_gamma   120.00000049
_symmetry_Int_Tables_number   1
_chemical_formula_structural   MnIr3
_chemical_formula_sum   'Mn2 Ir6'
_cell_volume   111.53242537
_cell_formula_units_Z   2
loop_
 _symmetry_equiv_pos_site_id
 _symmetry_equiv_pos_as_xyz
  1  'x, y, z'
loop_
 _atom_site_type_symbol
 _atom_site_label
 _atom_site_symmetry_multiplicity
 _atom_site_fract_x
 _atom_site_fract_y
 _atom_site_fract_z
 _atom_site_occupancy
  Mn  Mn1  1  0.333333  0.666666  0.750000  1.0
  Mn  Mn2  1  0.666667  0.333334  0.250000  1.0
  Ir  Ir3  1  0.168893  0.337785  0.250000  1.0
  Ir  Ir4  1  0.662215  0.831107  0.250000  1.0
  Ir  Ir5  1  0.168892  0.831107  0.250000  1.0
  Ir  Ir6  1  0.831107  0.662216  0.750000  1.0
  Ir  Ir7  1  0.337784  0.168891  0.750000  1.0
  Ir  Ir8  1  0.831108  0.168891  0.750000  1.0
