# generated using pymatgen
data_YbHg3
_symmetry_space_group_name_H-M   'P 1'
_cell_length_a   6.67621983
_cell_length_b   6.67468809
_cell_length_c   5.20162092
_cell_angle_alpha   90.00000000
_cell_angle_beta   90.00000000
_cell_angle_gamma   120.01098812
_symmetry_Int_Tables_number   1
_chemical_formula_structural   YbHg3
_chemical_formula_sum   'Yb2 Hg6'
_cell_volume   200.71639004
_cell_formula_units_Z   2
loop_
 _symmetry_equiv_pos_site_id
 _symmetry_equiv_pos_as_xyz
  1  'x, y, z'
loop_
 _atom_site_type_symbol
 _atom_site_label
 _atom_site_symmetry_multiplicity
 _atom_site_fract_x
 _atom_site_fract_y
 _atom_site_fract_z
 _atom_site_occupancy
  Yb  Yb1  1  0.333346  0.666682  0.750000  1.0
  Yb  Yb2  1  0.666657  0.333320  0.250000  1.0
  Hg  Hg3  1  0.165679  0.331388  0.250000  1.0
  Hg  Hg4  1  0.668661  0.834323  0.250000  1.0
  Hg  Hg5  1  0.165656  0.834297  0.250000  1.0
  Hg  Hg6  1  0.834320  0.668609  0.750000  1.0
  Hg  Hg7  1  0.331336  0.165676  0.750000  1.0
  Hg  Hg8  1  0.834345  0.165705  0.750000  1.0
