# generated using pymatgen
data_Li7VP4
_symmetry_space_group_name_H-M   'P 1'
_cell_length_a   38.20314506
_cell_length_b   29.41373222
_cell_length_c   15.22542886
_cell_angle_alpha   29.25784159
_cell_angle_beta   75.65745801
_cell_angle_gamma   46.42837889
_symmetry_Int_Tables_number   1
_chemical_formula_structural   Li7VP4
_chemical_formula_sum   'Li14 V2 P8'
_cell_volume   317.42196433
_cell_formula_units_Z   2
loop_
 _symmetry_equiv_pos_site_id
 _symmetry_equiv_pos_as_xyz
  1  'x, y, z'
loop_
 _atom_site_type_symbol
 _atom_site_label
 _atom_site_symmetry_multiplicity
 _atom_site_fract_x
 _atom_site_fract_y
 _atom_site_fract_z
 _atom_site_occupancy
  Li  Li1  1  0.654034  0.108573  0.696435  1.0
  Li  Li2  1  0.141492  0.439889  0.587949  1.0
  Li  Li3  1  0.203746  0.572882  0.184851  1.0
  Li  Li4  1  0.910213  0.862140  0.241404  1.0
  Li  Li5  1  0.769715  0.587870  0.959587  1.0
  Li  Li6  1  0.515171  0.703721  0.159750  1.0
  Li  Li7  1  0.077953  0.565496  0.786982  1.0
  Li  Li8  1  0.479025  0.974331  0.428570  1.0
  Li  Li9  1  0.948116  0.733847  0.696168  1.0
  Li  Li10  1  0.220596  0.496804  0.819913  1.0
  Li  Li11  1  0.053598  0.748415  0.981696  1.0
  Li  Li12  1  0.724563  0.403975  0.066877  1.0
  Li  Li13  1  0.128086  0.087104  0.882443  1.0
  Li  Li14  1  0.446658  0.841924  0.148447  1.0
  V  V15  1  0.325097  0.977501  0.801999  1.0
  V  V16  1  0.420923  0.407570  0.015347  1.0
  P  P17  1  0.173634  0.602488  0.516910  1.0
  P  P18  1  0.098533  0.080029  0.040642  1.0
  P  P19  1  0.020229  0.263266  0.016238  1.0
  P  P20  1  0.488571  0.995658  0.986743  1.0
  P  P21  1  0.636238  0.866191  0.948137  1.0
  P  P22  1  0.595670  0.958626  0.005804  1.0
  P  P23  1  0.149817  0.423109  0.332186  1.0
  P  P24  1  0.478188  0.895831  0.299729  1.0
