# generated using pymatgen
data_Co3Pt
_symmetry_space_group_name_H-M   'P 1'
_cell_length_a   5.21526374
_cell_length_b   5.21350647
_cell_length_c   4.14191212
_cell_angle_alpha   90.02078029
_cell_angle_beta   89.98645725
_cell_angle_gamma   119.98189336
_symmetry_Int_Tables_number   1
_chemical_formula_structural   Co3Pt
_chemical_formula_sum   'Co6 Pt2'
_cell_volume   97.54766659
_cell_formula_units_Z   2
loop_
 _symmetry_equiv_pos_site_id
 _symmetry_equiv_pos_as_xyz
  1  'x, y, z'
loop_
 _atom_site_type_symbol
 _atom_site_label
 _atom_site_symmetry_multiplicity
 _atom_site_fract_x
 _atom_site_fract_y
 _atom_site_fract_z
 _atom_site_occupancy
  Co  Co1  1  0.158345  0.316547  0.250030  1.0
  Co  Co2  1  0.683462  0.841662  0.250023  1.0
  Co  Co3  1  0.158257  0.841747  0.249994  1.0
  Co  Co4  1  0.841718  0.683503  0.749973  1.0
  Co  Co5  1  0.316498  0.158235  0.749979  1.0
  Co  Co6  1  0.841714  0.158189  0.750011  1.0
  Pt  Pt7  1  0.333393  0.666741  0.749983  1.0
  Pt  Pt8  1  0.666617  0.333382  0.250019  1.0
