# generated using pymatgen
data_ThPt3
_symmetry_space_group_name_H-M   'P 1'
_cell_length_a   5.93337866
_cell_length_b   5.93337885
_cell_length_c   5.01924282
_cell_angle_alpha   90.00000000
_cell_angle_beta   90.00000000
_cell_angle_gamma   120.00000452
_symmetry_Int_Tables_number   1
_chemical_formula_structural   ThPt3
_chemical_formula_sum   'Th2 Pt6'
_cell_volume   153.02872605
_cell_formula_units_Z   2
loop_
 _symmetry_equiv_pos_site_id
 _symmetry_equiv_pos_as_xyz
  1  'x, y, z'
loop_
 _atom_site_type_symbol
 _atom_site_label
 _atom_site_symmetry_multiplicity
 _atom_site_fract_x
 _atom_site_fract_y
 _atom_site_fract_z
 _atom_site_occupancy
  Th  Th1  1  0.333333  0.666666  0.749998  1.0
  Th  Th2  1  0.666667  0.333333  0.250000  1.0
  Pt  Pt3  1  0.160231  0.320463  0.250000  1.0
  Pt  Pt4  1  0.679538  0.839770  0.250000  1.0
  Pt  Pt5  1  0.160230  0.839770  0.250000  1.0
  Pt  Pt6  1  0.839770  0.679537  0.749998  1.0
  Pt  Pt7  1  0.320463  0.160231  0.749998  1.0
  Pt  Pt8  1  0.839769  0.160231  0.749998  1.0
