# generated using pymatgen
data_TmAlCu
_symmetry_space_group_name_H-M   'P 1'
_cell_length_a   6.99522942
_cell_length_b   6.99521556
_cell_length_c   3.92218483
_cell_angle_alpha   90.00000000
_cell_angle_beta   90.00000000
_cell_angle_gamma   120.00005580
_symmetry_Int_Tables_number   1
_chemical_formula_structural   TmAlCu
_chemical_formula_sum   'Tm3 Al3 Cu3'
_cell_volume   166.21166789
_cell_formula_units_Z   3
loop_
 _symmetry_equiv_pos_site_id
 _symmetry_equiv_pos_as_xyz
  1  'x, y, z'
loop_
 _atom_site_type_symbol
 _atom_site_label
 _atom_site_symmetry_multiplicity
 _atom_site_fract_x
 _atom_site_fract_y
 _atom_site_fract_z
 _atom_site_occupancy
  Tm  Tm1  1  0.585699  0.000000  0.499999  1.0
  Tm  Tm2  1  0.999995  0.585721  0.499999  1.0
  Tm  Tm3  1  0.414272  0.414277  0.499999  1.0
  Al  Al4  1  0.238020  0.000000  0.000000  1.0
  Al  Al5  1  0.999994  0.238031  0.000000  1.0
  Al  Al6  1  0.761963  0.761971  0.000000  1.0
  Cu  Cu7  1  0.000000  0.000000  0.499999  1.0
  Cu  Cu8  1  0.333310  0.666666  0.000000  1.0
  Cu  Cu9  1  0.666645  0.333333  0.000000  1.0
