# generated using pymatgen
data_YTe
_symmetry_space_group_name_H-M   'P 1'
_cell_length_a   4.11352876
_cell_length_b   4.11352643
_cell_length_c   4.06092938
_cell_angle_alpha   90.00000000
_cell_angle_beta   90.00000000
_cell_angle_gamma   120.00010100
_symmetry_Int_Tables_number   1
_chemical_formula_structural   YTe
_chemical_formula_sum   'Y1 Te1'
_cell_volume   59.50924727
_cell_formula_units_Z   1
loop_
 _symmetry_equiv_pos_site_id
 _symmetry_equiv_pos_as_xyz
  1  'x, y, z'
loop_
 _atom_site_type_symbol
 _atom_site_label
 _atom_site_symmetry_multiplicity
 _atom_site_fract_x
 _atom_site_fract_y
 _atom_site_fract_z
 _atom_site_occupancy
  Y  Y1  1  0.333334  0.666667  0.250000  1.0
  Te  Te2  1  0.666669  0.333335  0.749999  1.0
