# generated using pymatgen
data_UP3
_symmetry_space_group_name_H-M   'P 1'
_cell_length_a   5.40768422
_cell_length_b   5.40768432
_cell_length_c   5.23556798
_cell_angle_alpha   90.00000000
_cell_angle_beta   90.00000000
_cell_angle_gamma   119.99999324
_symmetry_Int_Tables_number   1
_chemical_formula_structural   UP3
_chemical_formula_sum   'U2 P6'
_cell_volume   132.59193807
_cell_formula_units_Z   2
loop_
 _symmetry_equiv_pos_site_id
 _symmetry_equiv_pos_as_xyz
  1  'x, y, z'
loop_
 _atom_site_type_symbol
 _atom_site_label
 _atom_site_symmetry_multiplicity
 _atom_site_fract_x
 _atom_site_fract_y
 _atom_site_fract_z
 _atom_site_occupancy
  U  U1  1  0.333334  0.666668  0.750000  1.0
  U  U2  1  0.666667  0.333333  0.249999  1.0
  P  P3  1  0.181983  0.363968  0.250000  1.0
  P  P4  1  0.636033  0.818017  0.250000  1.0
  P  P5  1  0.181983  0.818017  0.250000  1.0
  P  P6  1  0.818016  0.636033  0.749999  1.0
  P  P7  1  0.363965  0.181981  0.749999  1.0
  P  P8  1  0.818015  0.181981  0.749999  1.0
