# generated using pymatgen
data_YCo
_symmetry_space_group_name_H-M   'P 1'
_cell_length_a   3.90833981
_cell_length_b   3.90833559
_cell_length_c   7.21002844
_cell_angle_alpha   105.73751467
_cell_angle_beta   74.26258373
_cell_angle_gamma   120.01954422
_symmetry_Int_Tables_number   1
_chemical_formula_structural   YCo
_chemical_formula_sum   'Y2 Co2'
_cell_volume   90.56346974
_cell_formula_units_Z   2
loop_
 _symmetry_equiv_pos_site_id
 _symmetry_equiv_pos_as_xyz
  1  'x, y, z'
loop_
 _atom_site_type_symbol
 _atom_site_label
 _atom_site_symmetry_multiplicity
 _atom_site_fract_x
 _atom_site_fract_y
 _atom_site_fract_z
 _atom_site_occupancy
  Y  Y1  1  0.912581  0.087421  0.262312  1.0
  Y  Y2  1  0.087419  0.912579  0.737688  1.0
  Co  Co3  1  0.332665  0.667336  0.002145  1.0
  Co  Co4  1  0.667335  0.332664  0.997854  1.0
