# generated using pymatgen
data_ThGa3
_symmetry_space_group_name_H-M   'P 1'
_cell_length_a   6.47084033
_cell_length_b   6.47084063
_cell_length_c   4.62174343
_cell_angle_alpha   90.00000000
_cell_angle_beta   90.00000000
_cell_angle_gamma   120.00000361
_symmetry_Int_Tables_number   1
_chemical_formula_structural   ThGa3
_chemical_formula_sum   'Th2 Ga6'
_cell_volume   167.59375661
_cell_formula_units_Z   2
loop_
 _symmetry_equiv_pos_site_id
 _symmetry_equiv_pos_as_xyz
  1  'x, y, z'
loop_
 _atom_site_type_symbol
 _atom_site_label
 _atom_site_symmetry_multiplicity
 _atom_site_fract_x
 _atom_site_fract_y
 _atom_site_fract_z
 _atom_site_occupancy
  Th  Th1  1  0.333333  0.666666  0.749999  1.0
  Th  Th2  1  0.666667  0.333333  0.249999  1.0
  Ga  Ga3  1  0.143321  0.286642  0.249999  1.0
  Ga  Ga4  1  0.713358  0.856679  0.249999  1.0
  Ga  Ga5  1  0.143322  0.856679  0.249999  1.0
  Ga  Ga6  1  0.856678  0.713357  0.749999  1.0
  Ga  Ga7  1  0.286641  0.143321  0.749999  1.0
  Ga  Ga8  1  0.856679  0.143321  0.749999  1.0
