# generated using pymatgen
data_VIr3
_symmetry_space_group_name_H-M   'P 1'
_cell_length_a   5.46586044
_cell_length_b   5.46585942
_cell_length_c   4.35779085
_cell_angle_alpha   90.00000000
_cell_angle_beta   90.00000000
_cell_angle_gamma   120.00000616
_symmetry_Int_Tables_number   1
_chemical_formula_structural   VIr3
_chemical_formula_sum   'V2 Ir6'
_cell_volume   112.74933359
_cell_formula_units_Z   2
loop_
 _symmetry_equiv_pos_site_id
 _symmetry_equiv_pos_as_xyz
  1  'x, y, z'
loop_
 _atom_site_type_symbol
 _atom_site_label
 _atom_site_symmetry_multiplicity
 _atom_site_fract_x
 _atom_site_fract_y
 _atom_site_fract_z
 _atom_site_occupancy
  V  V1  1  0.333334  0.666668  0.749995  1.0
  V  V2  1  0.666667  0.333333  0.250005  1.0
  Ir  Ir3  1  0.167503  0.335007  0.249996  1.0
  Ir  Ir4  1  0.664994  0.832498  0.249996  1.0
  Ir  Ir5  1  0.167503  0.832498  0.249996  1.0
  Ir  Ir6  1  0.832497  0.664992  0.750004  1.0
  Ir  Ir7  1  0.335008  0.167505  0.750004  1.0
  Ir  Ir8  1  0.832498  0.167505  0.750004  1.0
