# generated using pymatgen
data_LiMg
_symmetry_space_group_name_H-M   'P 1'
_cell_length_a   3.31078050
_cell_length_b   7.61709436
_cell_length_c   4.95737400
_cell_angle_alpha   90.00000000
_cell_angle_beta   90.00000000
_cell_angle_gamma   77.44799007
_symmetry_Int_Tables_number   1
_chemical_formula_structural   LiMg
_chemical_formula_sum   'Li3 Mg3'
_cell_volume   122.02964166
_cell_formula_units_Z   3
loop_
 _symmetry_equiv_pos_site_id
 _symmetry_equiv_pos_as_xyz
  1  'x, y, z'
loop_
 _atom_site_type_symbol
 _atom_site_label
 _atom_site_symmetry_multiplicity
 _atom_site_fract_x
 _atom_site_fract_y
 _atom_site_fract_z
 _atom_site_occupancy
  Li  Li1  1  0.308777  0.382444  0.000000  1.0
  Li  Li2  1  0.472059  0.055882  0.500000  1.0
  Li  Li3  1  0.132539  0.734920  0.500000  1.0
  Mg  Mg4  1  0.970719  0.058565  0.000000  1.0
  Mg  Mg5  1  0.646354  0.707294  0.000000  1.0
  Mg  Mg6  1  0.802887  0.394229  0.500000  1.0
