# generated using pymatgen
data_Li5Mg
_symmetry_space_group_name_H-M   'P 1'
_cell_length_a   4.98597646
_cell_length_b   5.27295864
_cell_length_c   5.27296028
_cell_angle_alpha   60.00002347
_cell_angle_beta   90.00000000
_cell_angle_gamma   90.00000000
_symmetry_Int_Tables_number   1
_chemical_formula_structural   Li5Mg
_chemical_formula_sum   'Li5 Mg1'
_cell_volume   120.05764576
_cell_formula_units_Z   1
loop_
 _symmetry_equiv_pos_site_id
 _symmetry_equiv_pos_as_xyz
  1  'x, y, z'
loop_
 _atom_site_type_symbol
 _atom_site_label
 _atom_site_symmetry_multiplicity
 _atom_site_fract_x
 _atom_site_fract_y
 _atom_site_fract_z
 _atom_site_occupancy
  Li  Li1  1  0.000000  0.001456  0.998544  1.0
  Li  Li2  1  0.500000  0.333334  0.999999  1.0
  Li  Li3  1  0.000000  0.331879  0.333332  1.0
  Li  Li4  1  0.500000  0.000000  0.666666  1.0
  Li  Li5  1  0.000000  0.666666  0.668122  1.0
  Mg  Mg6  1  0.500000  0.666666  0.333334  1.0
