# generated using pymatgen
data_MgRh3
_symmetry_space_group_name_H-M   'P 1'
_cell_length_a   2.78814934
_cell_length_b   5.20151142
_cell_length_c   4.76865267
_cell_angle_alpha   62.71667836
_cell_angle_beta   90.00000000
_cell_angle_gamma   74.45391432
_symmetry_Int_Tables_number   1
_chemical_formula_structural   MgRh3
_chemical_formula_sum   'Mg1 Rh3'
_cell_volume   58.60269748
_cell_formula_units_Z   1
loop_
 _symmetry_equiv_pos_site_id
 _symmetry_equiv_pos_as_xyz
  1  'x, y, z'
loop_
 _atom_site_type_symbol
 _atom_site_label
 _atom_site_symmetry_multiplicity
 _atom_site_fract_x
 _atom_site_fract_y
 _atom_site_fract_z
 _atom_site_occupancy
  Mg  Mg1  1  0.750000  0.500001  0.085513  1.0
  Rh  Rh2  1  0.996071  0.007859  0.000309  1.0
  Rh  Rh3  1  0.503930  0.992143  0.508169  1.0
  Rh  Rh4  1  0.250000  0.500001  0.572672  1.0
