# generated using pymatgen
data_CoTc3
_symmetry_space_group_name_H-M   'P 1'
_cell_length_a   5.37801927
_cell_length_b   5.37801927
_cell_length_c   4.30299148
_cell_angle_alpha   90.00000000
_cell_angle_beta   90.00000000
_cell_angle_gamma   119.99999995
_symmetry_Int_Tables_number   1
_chemical_formula_structural   CoTc3
_chemical_formula_sum   'Co2 Tc6'
_cell_volume   107.78189776
_cell_formula_units_Z   2
loop_
 _symmetry_equiv_pos_site_id
 _symmetry_equiv_pos_as_xyz
  1  'x, y, z'
loop_
 _atom_site_type_symbol
 _atom_site_label
 _atom_site_symmetry_multiplicity
 _atom_site_fract_x
 _atom_site_fract_y
 _atom_site_fract_z
 _atom_site_occupancy
  Co  Co1  1  0.333334  0.666668  0.749999  1.0
  Co  Co2  1  0.666666  0.333332  0.249999  1.0
  Tc  Tc3  1  0.167107  0.334214  0.249999  1.0
  Tc  Tc4  1  0.665786  0.832892  0.249999  1.0
  Tc  Tc5  1  0.167108  0.832892  0.249999  1.0
  Tc  Tc6  1  0.832893  0.665787  0.749999  1.0
  Tc  Tc7  1  0.334216  0.167108  0.749999  1.0
  Tc  Tc8  1  0.832894  0.167108  0.749999  1.0
