# generated using pymatgen
data_PaBi3
_symmetry_space_group_name_H-M   'P 1'
_cell_length_a   6.38526737
_cell_length_b   6.38526737
_cell_length_c   6.38526737
_cell_angle_alpha   137.44136165
_cell_angle_beta   137.44136165
_cell_angle_gamma   61.75966541
_symmetry_Int_Tables_number   1
_chemical_formula_structural   PaBi3
_chemical_formula_sum   'Pa1 Bi3'
_cell_volume   117.71138695
_cell_formula_units_Z   1
loop_
 _symmetry_equiv_pos_site_id
 _symmetry_equiv_pos_as_xyz
  1  'x, y, z'
loop_
 _atom_site_type_symbol
 _atom_site_label
 _atom_site_symmetry_multiplicity
 _atom_site_fract_x
 _atom_site_fract_y
 _atom_site_fract_z
 _atom_site_occupancy
  Pa  Pa1  1  0.000000  0.000000  0.000000  1.0
  Bi  Bi2  1  0.749998  0.249999  0.499998  1.0
  Bi  Bi3  1  0.249999  0.749998  0.499998  1.0
  Bi  Bi4  1  0.500000  0.500000  0.000000  1.0
