# generated using pymatgen
data_CaBi3
_symmetry_space_group_name_H-M   'P 1'
_cell_length_a   4.99689192
_cell_length_b   4.99689192
_cell_length_c   4.99689192
_cell_angle_alpha   90.00833454
_cell_angle_beta   90.00833454
_cell_angle_gamma   90.00833454
_symmetry_Int_Tables_number   1
_chemical_formula_structural   CaBi3
_chemical_formula_sum   'Ca1 Bi3'
_cell_volume   124.76703491
_cell_formula_units_Z   1
loop_
 _symmetry_equiv_pos_site_id
 _symmetry_equiv_pos_as_xyz
  1  'x, y, z'
loop_
 _atom_site_type_symbol
 _atom_site_label
 _atom_site_symmetry_multiplicity
 _atom_site_fract_x
 _atom_site_fract_y
 _atom_site_fract_z
 _atom_site_occupancy
  Ca  Ca1  1  0.999999  0.999999  0.999999  1.0
  Bi  Bi2  1  0.000012  0.499993  0.499993  1.0
  Bi  Bi3  1  0.499993  0.000012  0.499993  1.0
  Bi  Bi4  1  0.499993  0.499993  0.000012  1.0
