# generated using pymatgen
data_CoRe3
_symmetry_space_group_name_H-M   'P 1'
_cell_length_a   5.42372624
_cell_length_b   5.42372628
_cell_length_c   4.35894516
_cell_angle_alpha   90.00000000
_cell_angle_beta   90.00000000
_cell_angle_gamma   120.00000583
_symmetry_Int_Tables_number   1
_chemical_formula_structural   CoRe3
_chemical_formula_sum   'Co2 Re6'
_cell_volume   111.04718038
_cell_formula_units_Z   2
loop_
 _symmetry_equiv_pos_site_id
 _symmetry_equiv_pos_as_xyz
  1  'x, y, z'
loop_
 _atom_site_type_symbol
 _atom_site_label
 _atom_site_symmetry_multiplicity
 _atom_site_fract_x
 _atom_site_fract_y
 _atom_site_fract_z
 _atom_site_occupancy
  Co  Co1  1  0.333333  0.666666  0.749998  1.0
  Co  Co2  1  0.666666  0.333333  0.249999  1.0
  Re  Re3  1  0.166357  0.332714  0.249999  1.0
  Re  Re4  1  0.667288  0.833645  0.249999  1.0
  Re  Re5  1  0.166356  0.833645  0.249999  1.0
  Re  Re6  1  0.833643  0.667287  0.749998  1.0
  Re  Re7  1  0.332712  0.166354  0.749998  1.0
  Re  Re8  1  0.833643  0.166354  0.749998  1.0
