# generated using pymatgen
data_Zr3N2
_symmetry_space_group_name_H-M   'P 1'
_cell_length_a   5.68011690
_cell_length_b   5.68011123
_cell_length_c   6.19962473
_cell_angle_alpha   117.24679598
_cell_angle_beta   62.75309874
_cell_angle_gamma   120.00192422
_symmetry_Int_Tables_number   1
_chemical_formula_structural   Zr3N2
_chemical_formula_sum   'Zr6 N4'
_cell_volume   147.03776506
_cell_formula_units_Z   2
loop_
 _symmetry_equiv_pos_site_id
 _symmetry_equiv_pos_as_xyz
  1  'x, y, z'
loop_
 _atom_site_type_symbol
 _atom_site_label
 _atom_site_symmetry_multiplicity
 _atom_site_fract_x
 _atom_site_fract_y
 _atom_site_fract_z
 _atom_site_occupancy
  Zr  Zr1  1  0.575363  0.749905  0.249966  1.0
  Zr  Zr2  1  0.924569  0.424570  0.250000  1.0
  Zr  Zr3  1  0.249905  0.075362  0.250033  1.0
  Zr  Zr4  1  0.750096  0.924641  0.749967  1.0
  Zr  Zr5  1  0.075431  0.575432  0.750000  1.0
  Zr  Zr6  1  0.424638  0.250097  0.750035  1.0
  N  N7  1  0.661209  0.338633  0.016269  1.0
  N  N8  1  0.838632  0.161207  0.483731  1.0
  N  N9  1  0.161368  0.838795  0.516270  1.0
  N  N10  1  0.338794  0.661369  0.983731  1.0
