# generated using pymatgen
data_AcSi3
_symmetry_space_group_name_H-M   'P 1'
_cell_length_a   6.52486447
_cell_length_b   6.52486272
_cell_length_c   4.63791524
_cell_angle_alpha   90.00000000
_cell_angle_beta   90.00000000
_cell_angle_gamma   119.99999371
_symmetry_Int_Tables_number   1
_chemical_formula_structural   AcSi3
_chemical_formula_sum   'Ac2 Si6'
_cell_volume   171.00009067
_cell_formula_units_Z   2
loop_
 _symmetry_equiv_pos_site_id
 _symmetry_equiv_pos_as_xyz
  1  'x, y, z'
loop_
 _atom_site_type_symbol
 _atom_site_label
 _atom_site_symmetry_multiplicity
 _atom_site_fract_x
 _atom_site_fract_y
 _atom_site_fract_z
 _atom_site_occupancy
  Ac  Ac1  1  0.333333  0.666666  0.750000  1.0
  Ac  Ac2  1  0.666667  0.333334  0.250001  1.0
  Si  Si3  1  0.128079  0.256158  0.250001  1.0
  Si  Si4  1  0.743840  0.871922  0.250001  1.0
  Si  Si5  1  0.128081  0.871922  0.250001  1.0
  Si  Si6  1  0.871921  0.743841  0.750000  1.0
  Si  Si7  1  0.256161  0.128080  0.750000  1.0
  Si  Si8  1  0.871920  0.128080  0.750000  1.0
