# generated using pymatgen
data_AcMg
_symmetry_space_group_name_H-M   'P 1'
_cell_length_a   4.12684366
_cell_length_b   4.10804522
_cell_length_c   5.83208375
_cell_angle_alpha   90.00000000
_cell_angle_beta   44.82366113
_cell_angle_gamma   90.00000000
_symmetry_Int_Tables_number   1
_chemical_formula_structural   AcMg
_chemical_formula_sum   'Ac1 Mg1'
_cell_volume   69.69814803
_cell_formula_units_Z   1
loop_
 _symmetry_equiv_pos_site_id
 _symmetry_equiv_pos_as_xyz
  1  'x, y, z'
loop_
 _atom_site_type_symbol
 _atom_site_label
 _atom_site_symmetry_multiplicity
 _atom_site_fract_x
 _atom_site_fract_y
 _atom_site_fract_z
 _atom_site_occupancy
  Ac  Ac1  1  0.499997  0.000000  0.995373  1.0
  Mg  Mg2  1  0.500001  0.500001  0.495806  1.0
