# generated using pymatgen
data_Sr(SiAg)2
_symmetry_space_group_name_H-M   'P 1'
_cell_length_a   4.41857424
_cell_length_b   4.41857423
_cell_length_c   6.13939429
_cell_angle_alpha   111.09124511
_cell_angle_beta   111.09124510
_cell_angle_gamma   90.00000002
_symmetry_Int_Tables_number   1
_chemical_formula_structural   Sr(SiAg)2
_chemical_formula_sum   'Sr1 Si2 Ag2'
_cell_volume   103.18149727
_cell_formula_units_Z   1
loop_
 _symmetry_equiv_pos_site_id
 _symmetry_equiv_pos_as_xyz
  1  'x, y, z'
loop_
 _atom_site_type_symbol
 _atom_site_label
 _atom_site_symmetry_multiplicity
 _atom_site_fract_x
 _atom_site_fract_y
 _atom_site_fract_z
 _atom_site_occupancy
  Sr  Sr1  1  0.000000  0.000000  0.000000  1.0
  Si  Si2  1  0.610896  0.610896  0.221792  1.0
  Si  Si3  1  0.389104  0.389104  0.778208  1.0
  Ag  Ag4  1  0.250000  0.750000  0.500000  1.0
  Ag  Ag5  1  0.750000  0.250000  0.500000  1.0
