# generated using pymatgen
data_SmGa3
_symmetry_space_group_name_H-M   'P 1'
_cell_length_a   6.38233027
_cell_length_b   6.38233208
_cell_length_c   4.59837783
_cell_angle_alpha   90.00000000
_cell_angle_beta   90.00000000
_cell_angle_gamma   120.00000124
_symmetry_Int_Tables_number   1
_chemical_formula_structural   SmGa3
_chemical_formula_sum   'Sm2 Ga6'
_cell_volume   162.21609791
_cell_formula_units_Z   2
loop_
 _symmetry_equiv_pos_site_id
 _symmetry_equiv_pos_as_xyz
  1  'x, y, z'
loop_
 _atom_site_type_symbol
 _atom_site_label
 _atom_site_symmetry_multiplicity
 _atom_site_fract_x
 _atom_site_fract_y
 _atom_site_fract_z
 _atom_site_occupancy
  Sm  Sm1  1  0.333334  0.666668  0.750000  1.0
  Sm  Sm2  1  0.666667  0.333334  0.250001  1.0
  Ga  Ga3  1  0.145366  0.290730  0.250001  1.0
  Ga  Ga4  1  0.709273  0.854636  0.250001  1.0
  Ga  Ga5  1  0.145365  0.854636  0.250001  1.0
  Ga  Ga6  1  0.854635  0.709272  0.750000  1.0
  Ga  Ga7  1  0.290728  0.145366  0.750000  1.0
  Ga  Ga8  1  0.854636  0.145366  0.750000  1.0
