# generated using pymatgen
data_TcOs3
_symmetry_space_group_name_H-M   'P 1'
_cell_length_a   5.52363320
_cell_length_b   5.52363242
_cell_length_c   4.35772657
_cell_angle_alpha   90.00000000
_cell_angle_beta   90.00000000
_cell_angle_gamma   119.99999244
_symmetry_Int_Tables_number   1
_chemical_formula_structural   TcOs3
_chemical_formula_sum   'Tc2 Os6'
_cell_volume   115.14371636
_cell_formula_units_Z   2
loop_
 _symmetry_equiv_pos_site_id
 _symmetry_equiv_pos_as_xyz
  1  'x, y, z'
loop_
 _atom_site_type_symbol
 _atom_site_label
 _atom_site_symmetry_multiplicity
 _atom_site_fract_x
 _atom_site_fract_y
 _atom_site_fract_z
 _atom_site_occupancy
  Tc  Tc1  1  0.333333  0.666666  0.750001  1.0
  Tc  Tc2  1  0.666668  0.333334  0.250001  1.0
  Os  Os3  1  0.167378  0.334755  0.250001  1.0
  Os  Os4  1  0.665245  0.832624  0.250001  1.0
  Os  Os5  1  0.167378  0.832624  0.250001  1.0
  Os  Os6  1  0.832623  0.665244  0.750001  1.0
  Os  Os7  1  0.334756  0.167378  0.750001  1.0
  Os  Os8  1  0.832623  0.167378  0.750001  1.0
