# generated using pymatgen
data_TbTe
_symmetry_space_group_name_H-M   'P 1'
_cell_length_a   4.11540026
_cell_length_b   4.11539082
_cell_length_c   4.07252997
_cell_angle_alpha   90.00000000
_cell_angle_beta   90.00000000
_cell_angle_gamma   120.00007589
_symmetry_Int_Tables_number   1
_chemical_formula_structural   TbTe
_chemical_formula_sum   'Tb1 Te1'
_cell_volume   59.73347131
_cell_formula_units_Z   1
loop_
 _symmetry_equiv_pos_site_id
 _symmetry_equiv_pos_as_xyz
  1  'x, y, z'
loop_
 _atom_site_type_symbol
 _atom_site_label
 _atom_site_symmetry_multiplicity
 _atom_site_fract_x
 _atom_site_fract_y
 _atom_site_fract_z
 _atom_site_occupancy
  Tb  Tb1  1  0.666669  0.333335  0.749999  1.0
  Te  Te2  1  0.333334  0.666668  0.249998  1.0
