# generated using pymatgen
data_Ac3Nd
_symmetry_space_group_name_H-M   'P 1'
_cell_length_a   7.88508574
_cell_length_b   7.88508491
_cell_length_c   6.35125582
_cell_angle_alpha   90.00000000
_cell_angle_beta   90.00000000
_cell_angle_gamma   119.99999929
_symmetry_Int_Tables_number   1
_chemical_formula_structural   Ac3Nd
_chemical_formula_sum   'Ac6 Nd2'
_cell_volume   341.98183249
_cell_formula_units_Z   2
loop_
 _symmetry_equiv_pos_site_id
 _symmetry_equiv_pos_as_xyz
  1  'x, y, z'
loop_
 _atom_site_type_symbol
 _atom_site_label
 _atom_site_symmetry_multiplicity
 _atom_site_fract_x
 _atom_site_fract_y
 _atom_site_fract_z
 _atom_site_occupancy
  Ac  Ac1  1  0.831755  0.168245  0.750000  1.0
  Ac  Ac2  1  0.336490  0.168245  0.750000  1.0
  Ac  Ac3  1  0.831755  0.663509  0.750000  1.0
  Ac  Ac4  1  0.168245  0.831754  0.250001  1.0
  Ac  Ac5  1  0.663509  0.831754  0.250001  1.0
  Ac  Ac6  1  0.168246  0.336491  0.250001  1.0
  Nd  Nd7  1  0.666667  0.333332  0.250001  1.0
  Nd  Nd8  1  0.333333  0.666666  0.750000  1.0
