# generated using pymatgen
data_Tc3Ni
_symmetry_space_group_name_H-M   'P 1'
_cell_length_a   5.38434885
_cell_length_b   5.38434910
_cell_length_c   4.33432920
_cell_angle_alpha   90.00000000
_cell_angle_beta   90.00000000
_cell_angle_gamma   119.99999839
_symmetry_Int_Tables_number   1
_chemical_formula_structural   Tc3Ni
_chemical_formula_sum   'Tc6 Ni2'
_cell_volume   108.82255853
_cell_formula_units_Z   2
loop_
 _symmetry_equiv_pos_site_id
 _symmetry_equiv_pos_as_xyz
  1  'x, y, z'
loop_
 _atom_site_type_symbol
 _atom_site_label
 _atom_site_symmetry_multiplicity
 _atom_site_fract_x
 _atom_site_fract_y
 _atom_site_fract_z
 _atom_site_occupancy
  Tc  Tc1  1  0.833561  0.667122  0.750001  1.0
  Tc  Tc2  1  0.166437  0.833562  0.249999  1.0
  Tc  Tc3  1  0.667123  0.833562  0.249999  1.0
  Tc  Tc4  1  0.166437  0.332876  0.249999  1.0
  Tc  Tc5  1  0.833562  0.166438  0.750001  1.0
  Tc  Tc6  1  0.332876  0.166438  0.750001  1.0
  Ni  Ni7  1  0.666665  0.333332  0.249999  1.0
  Ni  Ni8  1  0.333333  0.666666  0.750001  1.0
