# generated using pymatgen
data_AcSe3
_symmetry_space_group_name_H-M   'P 1'
_cell_length_a   6.25570031
_cell_length_b   6.25569978
_cell_length_c   6.11789050
_cell_angle_alpha   90.00000000
_cell_angle_beta   90.00000000
_cell_angle_gamma   119.99999215
_symmetry_Int_Tables_number   1
_chemical_formula_structural   AcSe3
_chemical_formula_sum   'Ac2 Se6'
_cell_volume   207.34052731
_cell_formula_units_Z   2
loop_
 _symmetry_equiv_pos_site_id
 _symmetry_equiv_pos_as_xyz
  1  'x, y, z'
loop_
 _atom_site_type_symbol
 _atom_site_label
 _atom_site_symmetry_multiplicity
 _atom_site_fract_x
 _atom_site_fract_y
 _atom_site_fract_z
 _atom_site_occupancy
  Ac  Ac1  1  0.333334  0.666668  0.750001  1.0
  Ac  Ac2  1  0.666667  0.333332  0.250001  1.0
  Se  Se3  1  0.173855  0.347711  0.250001  1.0
  Se  Se4  1  0.652287  0.826143  0.250001  1.0
  Se  Se5  1  0.173856  0.826143  0.250001  1.0
  Se  Se6  1  0.826144  0.652287  0.750001  1.0
  Se  Se7  1  0.347712  0.173856  0.750001  1.0
  Se  Se8  1  0.826143  0.173856  0.750001  1.0
