# generated using pymatgen
data_SmAl3
_symmetry_space_group_name_H-M   'P 1'
_cell_length_a   6.41118280
_cell_length_b   6.41118148
_cell_length_c   4.61979406
_cell_angle_alpha   90.00000000
_cell_angle_beta   90.00000000
_cell_angle_gamma   119.99999647
_symmetry_Int_Tables_number   1
_chemical_formula_structural   SmAl3
_chemical_formula_sum   'Sm2 Al6'
_cell_volume   164.44833994
_cell_formula_units_Z   2
loop_
 _symmetry_equiv_pos_site_id
 _symmetry_equiv_pos_as_xyz
  1  'x, y, z'
loop_
 _atom_site_type_symbol
 _atom_site_label
 _atom_site_symmetry_multiplicity
 _atom_site_fract_x
 _atom_site_fract_y
 _atom_site_fract_z
 _atom_site_occupancy
  Sm  Sm1  1  0.666667  0.333334  0.249999  1.0
  Sm  Sm2  1  0.333334  0.666667  0.750000  1.0
  Al  Al3  1  0.856588  0.143411  0.750000  1.0
  Al  Al4  1  0.143412  0.286825  0.249999  1.0
  Al  Al5  1  0.713178  0.856590  0.249999  1.0
  Al  Al6  1  0.143412  0.856590  0.249999  1.0
  Al  Al7  1  0.856588  0.713176  0.750000  1.0
  Al  Al8  1  0.286823  0.143411  0.750000  1.0
