# generated using pymatgen
data_AcGa3
_symmetry_space_group_name_H-M   'P 1'
_cell_length_a   6.84112260
_cell_length_b   6.84112173
_cell_length_c   4.70498683
_cell_angle_alpha   90.00000000
_cell_angle_beta   90.00000000
_cell_angle_gamma   119.99999424
_symmetry_Int_Tables_number   1
_chemical_formula_structural   AcGa3
_chemical_formula_sum   'Ac2 Ga6'
_cell_volume   190.69695605
_cell_formula_units_Z   2
loop_
 _symmetry_equiv_pos_site_id
 _symmetry_equiv_pos_as_xyz
  1  'x, y, z'
loop_
 _atom_site_type_symbol
 _atom_site_label
 _atom_site_symmetry_multiplicity
 _atom_site_fract_x
 _atom_site_fract_y
 _atom_site_fract_z
 _atom_site_occupancy
  Ac  Ac1  1  0.333333  0.666666  0.750000  1.0
  Ac  Ac2  1  0.666666  0.333332  0.250001  1.0
  Ga  Ga3  1  0.135605  0.271210  0.250001  1.0
  Ga  Ga4  1  0.728792  0.864395  0.250001  1.0
  Ga  Ga5  1  0.135604  0.864395  0.250001  1.0
  Ga  Ga6  1  0.864395  0.728791  0.750000  1.0
  Ga  Ga7  1  0.271208  0.135604  0.750000  1.0
  Ga  Ga8  1  0.864395  0.135604  0.750000  1.0
