# generated using pymatgen
data_NaSnSb
_symmetry_space_group_name_H-M   'P 1'
_cell_length_a   4.37039269
_cell_length_b   4.37039215
_cell_length_c   11.89746560
_cell_angle_alpha   90.00000000
_cell_angle_beta   90.00000000
_cell_angle_gamma   119.99999688
_symmetry_Int_Tables_number   1
_chemical_formula_structural   NaSnSb
_chemical_formula_sum   'Na2 Sn2 Sb2'
_cell_volume   196.80039766
_cell_formula_units_Z   2
loop_
 _symmetry_equiv_pos_site_id
 _symmetry_equiv_pos_as_xyz
  1  'x, y, z'
loop_
 _atom_site_type_symbol
 _atom_site_label
 _atom_site_symmetry_multiplicity
 _atom_site_fract_x
 _atom_site_fract_y
 _atom_site_fract_z
 _atom_site_occupancy
  Na  Na1  1  0.333333  0.666667  0.999290  1.0
  Na  Na2  1  0.666667  0.333333  0.499290  1.0
  Sn  Sn3  1  0.000000  0.000000  0.305016  1.0
  Sn  Sn4  1  0.000000  0.000000  0.805016  1.0
  Sb  Sb5  1  0.333333  0.666667  0.680194  1.0
  Sb  Sb6  1  0.666667  0.333333  0.180194  1.0
