# generated using pymatgen
data_FeSiW
_symmetry_space_group_name_H-M   'P 1'
_cell_length_a   3.92234597
_cell_length_b   3.92234624
_cell_length_c   3.92234591
_cell_angle_alpha   60.00000285
_cell_angle_beta   60.00000057
_cell_angle_gamma   60.00000261
_symmetry_Int_Tables_number   1
_chemical_formula_structural   FeSiW
_chemical_formula_sum   'Fe1 Si1 W1'
_cell_volume   42.67000944
_cell_formula_units_Z   1
loop_
 _symmetry_equiv_pos_site_id
 _symmetry_equiv_pos_as_xyz
  1  'x, y, z'
loop_
 _atom_site_type_symbol
 _atom_site_label
 _atom_site_symmetry_multiplicity
 _atom_site_fract_x
 _atom_site_fract_y
 _atom_site_fract_z
 _atom_site_occupancy
  Fe  Fe1  1  0.250000  0.250000  0.250000  1.0
  Si  Si2  1  0.000000  0.000000  0.000000  1.0
  W  W3  1  0.500000  0.500000  0.500000  1.0
