# generated using pymatgen
data_Ba2FeReO6
_symmetry_space_group_name_H-M   'P 1'
_cell_length_a   5.76394786
_cell_length_b   5.76394785
_cell_length_c   5.76394786
_cell_angle_alpha   90.00817720
_cell_angle_beta   119.99527903
_cell_angle_gamma   119.99527902
_symmetry_Int_Tables_number   1
_chemical_formula_structural   Ba2FeReO6
_chemical_formula_sum   'Ba2 Fe1 Re1 O6'
_cell_volume   135.41791298
_cell_formula_units_Z   1
loop_
 _symmetry_equiv_pos_site_id
 _symmetry_equiv_pos_as_xyz
  1  'x, y, z'
loop_
 _atom_site_type_symbol
 _atom_site_label
 _atom_site_symmetry_multiplicity
 _atom_site_fract_x
 _atom_site_fract_y
 _atom_site_fract_z
 _atom_site_occupancy
  Ba  Ba1  1  0.500000  0.250000  0.750000  1.0
  Ba  Ba2  1  0.500000  0.750000  0.250000  1.0
  Fe  Fe3  1  0.000000  0.000000  0.000000  1.0
  Re  Re4  1  0.000000  0.500000  0.500000  1.0
  O  O5  1  0.000000  0.743119  0.743119  1.0
  O  O6  1  0.000000  0.256881  0.256881  1.0
  O  O7  1  0.485820  0.742910  0.742910  1.0
  O  O8  1  0.000000  0.742910  0.257090  1.0
  O  O9  1  0.514180  0.257090  0.257090  1.0
  O  O10  1  0.000000  0.257090  0.742910  1.0
