# generated using pymatgen
data_TiS
_symmetry_space_group_name_H-M   'P 1'
_cell_length_a   3.27395514
_cell_length_b   3.27380746
_cell_length_c   3.21907715
_cell_angle_alpha   90.00000000
_cell_angle_beta   90.00000000
_cell_angle_gamma   120.00149218
_symmetry_Int_Tables_number   1
_chemical_formula_structural   TiS
_chemical_formula_sum   'Ti1 S1'
_cell_volume   29.88005173
_cell_formula_units_Z   1
loop_
 _symmetry_equiv_pos_site_id
 _symmetry_equiv_pos_as_xyz
  1  'x, y, z'
loop_
 _atom_site_type_symbol
 _atom_site_label
 _atom_site_symmetry_multiplicity
 _atom_site_fract_x
 _atom_site_fract_y
 _atom_site_fract_z
 _atom_site_occupancy
  Ti  Ti1  1  0.999987  0.999973  0.000000  1.0
  S  S2  1  0.333313  0.666627  0.500000  1.0
