# generated using pymatgen
data_BaCO3
_symmetry_space_group_name_H-M   'P 1'
_cell_length_a   9.35908045
_cell_length_b   7.62660810
_cell_length_c   7.62660776
_cell_angle_alpha   41.66562081
_cell_angle_beta   35.42365379
_cell_angle_gamma   35.42365101
_symmetry_Int_Tables_number   1
_chemical_formula_structural   BaCO3
_chemical_formula_sum   'Ba2 C2 O6'
_cell_volume   177.21710450
_cell_formula_units_Z   2
loop_
 _symmetry_equiv_pos_site_id
 _symmetry_equiv_pos_as_xyz
  1  'x, y, z'
loop_
 _atom_site_type_symbol
 _atom_site_label
 _atom_site_symmetry_multiplicity
 _atom_site_fract_x
 _atom_site_fract_y
 _atom_site_fract_z
 _atom_site_occupancy
  Ba  Ba1  1  0.250000  0.500000  0.500000  1.0
  Ba  Ba2  1  0.750000  0.500000  0.500000  1.0
  C  C3  1  0.000000  0.000000  0.000000  1.0
  C  C4  1  0.500000  0.000000  0.000000  1.0
  O  O5  1  0.000000  0.759362  0.240638  1.0
  O  O6  1  0.240638  0.000000  0.759362  1.0
  O  O7  1  0.759362  0.240638  0.000000  1.0
  O  O8  1  0.259362  0.000000  0.240638  1.0
  O  O9  1  0.500000  0.240638  0.759362  1.0
  O  O10  1  0.740638  0.759362  0.000000  1.0
