# generated using pymatgen
data_TcB
_symmetry_space_group_name_H-M   'P 1'
_cell_length_a   2.88038874
_cell_length_b   2.88038874
_cell_length_c   2.94555188
_cell_angle_alpha   90.00000000
_cell_angle_beta   90.00000000
_cell_angle_gamma   120.00353351
_symmetry_Int_Tables_number   1
_chemical_formula_structural   TcB
_chemical_formula_sum   'Tc1 B1'
_cell_volume   21.16333237
_cell_formula_units_Z   1
loop_
 _symmetry_equiv_pos_site_id
 _symmetry_equiv_pos_as_xyz
  1  'x, y, z'
loop_
 _atom_site_type_symbol
 _atom_site_label
 _atom_site_symmetry_multiplicity
 _atom_site_fract_x
 _atom_site_fract_y
 _atom_site_fract_z
 _atom_site_occupancy
  Tc  Tc1  1  0.000022  0.999978  0.000000  1.0
  B  B2  1  0.333278  0.666722  0.500000  1.0
