# generated using pymatgen
data_CrC
_symmetry_space_group_name_H-M   'P 1'
_cell_length_a   2.70694467
_cell_length_b   2.70696629
_cell_length_c   2.62157136
_cell_angle_alpha   90.00000000
_cell_angle_beta   90.00000000
_cell_angle_gamma   119.99973566
_symmetry_Int_Tables_number   1
_chemical_formula_structural   CrC
_chemical_formula_sum   'Cr1 C1'
_cell_volume   16.63625999
_cell_formula_units_Z   1
loop_
 _symmetry_equiv_pos_site_id
 _symmetry_equiv_pos_as_xyz
  1  'x, y, z'
loop_
 _atom_site_type_symbol
 _atom_site_label
 _atom_site_symmetry_multiplicity
 _atom_site_fract_x
 _atom_site_fract_y
 _atom_site_fract_z
 _atom_site_occupancy
  Cr  Cr1  1  0.999985  0.999969  0.000000  1.0
  C  C2  1  0.333315  0.666631  0.500000  1.0
