# generated using pymatgen
data_NbBiO4
_symmetry_space_group_name_H-M   'P 1'
_cell_length_a   6.65314676
_cell_length_b   4.19102154
_cell_length_c   4.20383558
_cell_angle_alpha   88.96162155
_cell_angle_beta   66.66531435
_cell_angle_gamma   67.52710940
_symmetry_Int_Tables_number   1
_chemical_formula_structural   NbBiO4
_chemical_formula_sum   'Nb1 Bi1 O4'
_cell_volume   98.22180045
_cell_formula_units_Z   1
loop_
 _symmetry_equiv_pos_site_id
 _symmetry_equiv_pos_as_xyz
  1  'x, y, z'
loop_
 _atom_site_type_symbol
 _atom_site_label
 _atom_site_symmetry_multiplicity
 _atom_site_fract_x
 _atom_site_fract_y
 _atom_site_fract_z
 _atom_site_occupancy
  Nb  Nb1  1  0.999601  0.053644  0.942527  1.0
  Bi  Bi2  1  0.498159  0.213618  0.792742  1.0
  O  O3  1  0.950216  0.046697  0.531853  1.0
  O  O4  1  0.347851  0.786873  0.812041  1.0
  O  O5  1  0.652938  0.181009  0.218381  1.0
  O  O6  1  0.051237  0.468157  0.952456  1.0
