# generated using pymatgen
data_CaGeN2
_symmetry_space_group_name_H-M   'P 1'
_cell_length_a   5.30921777
_cell_length_b   5.30921777
_cell_length_c   5.30921777
_cell_angle_alpha   93.02512767
_cell_angle_beta   118.26908393
_cell_angle_gamma   118.26908384
_symmetry_Int_Tables_number   1
_chemical_formula_structural   CaGeN2
_chemical_formula_sum   'Ca2 Ge2 N4'
_cell_volume   108.42727903
_cell_formula_units_Z   2
loop_
 _symmetry_equiv_pos_site_id
 _symmetry_equiv_pos_as_xyz
  1  'x, y, z'
loop_
 _atom_site_type_symbol
 _atom_site_label
 _atom_site_symmetry_multiplicity
 _atom_site_fract_x
 _atom_site_fract_y
 _atom_site_fract_z
 _atom_site_occupancy
  Ca  Ca1  1  0.500000  0.250000  0.750000  1.0
  Ca  Ca2  1  0.000000  0.500000  0.500000  1.0
  Ge  Ge3  1  0.000000  0.000000  0.000000  1.0
  Ge  Ge4  1  0.500000  0.750000  0.250000  1.0
  N  N5  1  0.577956  0.875000  0.952956  1.0
  N  N6  1  0.922044  0.047044  0.625000  1.0
  N  N7  1  0.422044  0.375000  0.297044  1.0
  N  N8  1  0.077956  0.702956  0.125000  1.0
