# generated using pymatgen
data_ZrTi2
_symmetry_space_group_name_H-M   'P 1'
_cell_length_a   3.00410914
_cell_length_b   4.73105595
_cell_length_c   4.73152763
_cell_angle_alpha   119.99669644
_cell_angle_beta   90.00000000
_cell_angle_gamma   90.00000000
_symmetry_Int_Tables_number   1
_chemical_formula_structural   ZrTi2
_chemical_formula_sum   'Zr1 Ti2'
_cell_volume   58.23985153
_cell_formula_units_Z   1
loop_
 _symmetry_equiv_pos_site_id
 _symmetry_equiv_pos_as_xyz
  1  'x, y, z'
loop_
 _atom_site_type_symbol
 _atom_site_label
 _atom_site_symmetry_multiplicity
 _atom_site_fract_x
 _atom_site_fract_y
 _atom_site_fract_z
 _atom_site_occupancy
  Zr  Zr1  1  0.000000  0.999990  0.000000  1.0
  Ti  Ti2  1  0.500000  0.333307  0.666705  1.0
  Ti  Ti3  1  0.500000  0.666602  0.333295  1.0
