# generated using pymatgen
data_WN2
_symmetry_space_group_name_H-M   'P 1'
_cell_length_a   2.93085110
_cell_length_b   2.93086908
_cell_length_c   3.91914161
_cell_angle_alpha   90.00000000
_cell_angle_beta   90.00000000
_cell_angle_gamma   119.99979705
_symmetry_Int_Tables_number   1
_chemical_formula_structural   WN2
_chemical_formula_sum   'W1 N2'
_cell_volume   29.15497344
_cell_formula_units_Z   1
loop_
 _symmetry_equiv_pos_site_id
 _symmetry_equiv_pos_as_xyz
  1  'x, y, z'
loop_
 _atom_site_type_symbol
 _atom_site_label
 _atom_site_symmetry_multiplicity
 _atom_site_fract_x
 _atom_site_fract_y
 _atom_site_fract_z
 _atom_site_occupancy
  W  W1  1  0.666688  0.333376  0.500000  1.0
  N  N2  1  0.000006  0.000012  0.818749  1.0
  N  N3  1  0.000006  0.000012  0.181251  1.0
