# generated using pymatgen
data_ZrTe2
_symmetry_space_group_name_H-M   'P 1'
_cell_length_a   3.98416467
_cell_length_b   3.98423401
_cell_length_c   6.99556595
_cell_angle_alpha   90.00000001
_cell_angle_beta   90.00320706
_cell_angle_gamma   120.00058155
_symmetry_Int_Tables_number   1
_chemical_formula_structural   ZrTe2
_chemical_formula_sum   'Zr1 Te2'
_cell_volume   96.16854809
_cell_formula_units_Z   1
loop_
 _symmetry_equiv_pos_site_id
 _symmetry_equiv_pos_as_xyz
  1  'x, y, z'
loop_
 _atom_site_type_symbol
 _atom_site_label
 _atom_site_symmetry_multiplicity
 _atom_site_fract_x
 _atom_site_fract_y
 _atom_site_fract_z
 _atom_site_occupancy
  Zr  Zr1  1  0.000000  0.000000  0.000000  1.0
  Te  Te2  1  0.666608  0.333304  0.743282  1.0
  Te  Te3  1  0.333392  0.666696  0.256718  1.0
