# generated using pymatgen
data_TaPd2
_symmetry_space_group_name_H-M   'P 1'
_cell_length_a   2.91035659
_cell_length_b   3.86873565
_cell_length_c   4.89590327
_cell_angle_alpha   113.27216559
_cell_angle_beta   107.29092583
_cell_angle_gamma   90.00000006
_symmetry_Int_Tables_number   1
_chemical_formula_structural   TaPd2
_chemical_formula_sum   'Ta1 Pd2'
_cell_volume   47.91605253
_cell_formula_units_Z   1
loop_
 _symmetry_equiv_pos_site_id
 _symmetry_equiv_pos_as_xyz
  1  'x, y, z'
loop_
 _atom_site_type_symbol
 _atom_site_label
 _atom_site_symmetry_multiplicity
 _atom_site_fract_x
 _atom_site_fract_y
 _atom_site_fract_z
 _atom_site_occupancy
  Ta  Ta1  1  0.000000  0.000000  0.000000  1.0
  Pd  Pd2  1  0.335320  0.335320  0.670641  1.0
  Pd  Pd3  1  0.664680  0.664680  0.329359  1.0
