# generated using pymatgen
data_PtN2
_symmetry_space_group_name_H-M   'P 1'
_cell_length_a   3.21497681
_cell_length_b   3.21507625
_cell_length_c   3.91721233
_cell_angle_alpha   90.00000000
_cell_angle_beta   90.00000000
_cell_angle_gamma   119.99897682
_symmetry_Int_Tables_number   1
_chemical_formula_structural   PtN2
_chemical_formula_sum   'Pt1 N2'
_cell_volume   35.06560562
_cell_formula_units_Z   1
loop_
 _symmetry_equiv_pos_site_id
 _symmetry_equiv_pos_as_xyz
  1  'x, y, z'
loop_
 _atom_site_type_symbol
 _atom_site_label
 _atom_site_symmetry_multiplicity
 _atom_site_fract_x
 _atom_site_fract_y
 _atom_site_fract_z
 _atom_site_occupancy
  Pt  Pt1  1  0.666698  0.333395  0.500000  1.0
  N  N2  1  0.000001  0.000002  0.847004  1.0
  N  N3  1  0.000001  0.000002  0.152997  1.0
