# generated using pymatgen
data_V2C
_symmetry_space_group_name_H-M   'P 1'
_cell_length_a   2.89278713
_cell_length_b   2.89321898
_cell_length_c   4.53209608
_cell_angle_alpha   89.99999998
_cell_angle_beta   90.00410234
_cell_angle_gamma   120.00493223
_symmetry_Int_Tables_number   1
_chemical_formula_structural   V2C
_chemical_formula_sum   'V2 C1'
_cell_volume   32.84777323
_cell_formula_units_Z   1
loop_
 _symmetry_equiv_pos_site_id
 _symmetry_equiv_pos_as_xyz
  1  'x, y, z'
loop_
 _atom_site_type_symbol
 _atom_site_label
 _atom_site_symmetry_multiplicity
 _atom_site_fract_x
 _atom_site_fract_y
 _atom_site_fract_z
 _atom_site_occupancy
  V  V1  1  0.333372  0.666686  0.253102  1.0
  V  V2  1  0.666628  0.333314  0.746898  1.0
  C  C3  1  0.000000  0.000000  0.000000  1.0
