# generated using pymatgen
data_Tm
_symmetry_space_group_name_H-M   'P 1'
_cell_length_a   3.51163473
_cell_length_b   3.51163425
_cell_length_c   8.65745371
_cell_angle_alpha   78.29867873
_cell_angle_beta   78.29868054
_cell_angle_gamma   60.00000464
_symmetry_Int_Tables_number   1
_chemical_formula_structural   Tm
_chemical_formula_sum   Tm3
_cell_volume   89.88589446
_cell_formula_units_Z   3
loop_
 _symmetry_equiv_pos_site_id
 _symmetry_equiv_pos_as_xyz
  1  'x, y, z'
loop_
 _atom_site_type_symbol
 _atom_site_label
 _atom_site_symmetry_multiplicity
 _atom_site_fract_x
 _atom_site_fract_y
 _atom_site_fract_z
 _atom_site_occupancy
  Tm  Tm1  1  0.000000  0.000000  0.000000  1.0
  Tm  Tm2  1  0.778010  0.778010  0.665970  1.0
  Tm  Tm3  1  0.221990  0.221990  0.334030  1.0
