# generated using pymatgen
data_OsC2
_symmetry_space_group_name_H-M   'P 1'
_cell_length_a   2.87167165
_cell_length_b   2.87168709
_cell_length_c   4.01459492
_cell_angle_alpha   90.00000000
_cell_angle_beta   90.00000000
_cell_angle_gamma   119.99982204
_symmetry_Int_Tables_number   1
_chemical_formula_structural   OsC2
_chemical_formula_sum   'Os1 C2'
_cell_volume   28.67114504
_cell_formula_units_Z   1
loop_
 _symmetry_equiv_pos_site_id
 _symmetry_equiv_pos_as_xyz
  1  'x, y, z'
loop_
 _atom_site_type_symbol
 _atom_site_label
 _atom_site_symmetry_multiplicity
 _atom_site_fract_x
 _atom_site_fract_y
 _atom_site_fract_z
 _atom_site_occupancy
  Os  Os1  1  0.666681  0.333362  0.500000  1.0
  C  C2  1  0.000010  0.000019  0.819966  1.0
  C  C3  1  0.000010  0.000019  0.180034  1.0
