# generated using pymatgen
data_Tb
_symmetry_space_group_name_H-M   'P 1'
_cell_length_a   3.58308259
_cell_length_b   3.58308259
_cell_length_c   8.89897141
_cell_angle_alpha   78.38583686
_cell_angle_beta   78.38583686
_cell_angle_gamma   60.00000755
_symmetry_Int_Tables_number   1
_chemical_formula_structural   Tb
_chemical_formula_sum   Tb3
_cell_volume   96.23223460
_cell_formula_units_Z   3
loop_
 _symmetry_equiv_pos_site_id
 _symmetry_equiv_pos_as_xyz
  1  'x, y, z'
loop_
 _atom_site_type_symbol
 _atom_site_label
 _atom_site_symmetry_multiplicity
 _atom_site_fract_x
 _atom_site_fract_y
 _atom_site_fract_z
 _atom_site_occupancy
  Tb  Tb1  1  0.000000  0.000000  0.000000  1.0
  Tb  Tb2  1  0.222264  0.222264  0.333207  1.0
  Tb  Tb3  1  0.777736  0.777736  0.666793  1.0
