# generated using pymatgen
data_AgB2
_symmetry_space_group_name_H-M   'P 1'
_cell_length_a   3.02680418
_cell_length_b   3.02680418
_cell_length_c   4.06392196
_cell_angle_alpha   90.00000000
_cell_angle_beta   90.00000000
_cell_angle_gamma   120.00000002
_symmetry_Int_Tables_number   1
_chemical_formula_structural   AgB2
_chemical_formula_sum   'Ag1 B2'
_cell_volume   32.24368289
_cell_formula_units_Z   1
loop_
 _symmetry_equiv_pos_site_id
 _symmetry_equiv_pos_as_xyz
  1  'x, y, z'
loop_
 _atom_site_type_symbol
 _atom_site_label
 _atom_site_symmetry_multiplicity
 _atom_site_fract_x
 _atom_site_fract_y
 _atom_site_fract_z
 _atom_site_occupancy
  Ag  Ag1  1  0.000000  0.000000  0.000000  1.0
  B  B2  1  0.666667  0.333333  0.500000  1.0
  B  B3  1  0.333333  0.666667  0.500000  1.0
