# generated using pymatgen
data_YMoO3
_symmetry_space_group_name_H-M   'P 1'
_cell_length_a   6.29054794
_cell_length_b   6.29054759
_cell_length_c   12.51747355
_cell_angle_alpha   90.00000000
_cell_angle_beta   90.00000000
_cell_angle_gamma   120.00000187
_symmetry_Int_Tables_number   1
_chemical_formula_structural   YMoO3
_chemical_formula_sum   'Y6 Mo6 O18'
_cell_volume   428.96734668
_cell_formula_units_Z   6
loop_
 _symmetry_equiv_pos_site_id
 _symmetry_equiv_pos_as_xyz
  1  'x, y, z'
loop_
 _atom_site_type_symbol
 _atom_site_label
 _atom_site_symmetry_multiplicity
 _atom_site_fract_x
 _atom_site_fract_y
 _atom_site_fract_z
 _atom_site_occupancy
  Y  Y1  1  0.666667  0.333333  0.235293  1.0
  Y  Y2  1  0.333333  0.666667  0.735293  1.0
  Y  Y3  1  0.666667  0.333333  0.735293  1.0
  Y  Y4  1  0.333333  0.666667  0.235293  1.0
  Y  Y5  1  0.000000  0.000000  0.770111  1.0
  Y  Y6  1  0.000000  0.000000  0.270111  1.0
  Mo  Mo7  1  0.667594  0.000000  0.500501  1.0
  Mo  Mo8  1  0.667594  0.667594  0.000501  1.0
  Mo  Mo9  1  0.000000  0.332406  0.000501  1.0
  Mo  Mo10  1  0.000000  0.667594  0.500501  1.0
  Mo  Mo11  1  0.332406  0.332406  0.500501  1.0
  Mo  Mo12  1  0.332406  0.000000  0.000501  1.0
  O  O13  1  0.666667  0.333333  0.030399  1.0
  O  O14  1  0.333333  0.666667  0.530399  1.0
  O  O15  1  0.666667  0.333333  0.530399  1.0
  O  O16  1  0.333333  0.666667  0.030399  1.0
  O  O17  1  0.000000  0.000000  0.964221  1.0
  O  O18  1  0.000000  0.000000  0.464221  1.0
  O  O19  1  0.359499  0.000000  0.831804  1.0
  O  O20  1  0.359499  0.359499  0.331804  1.0
  O  O21  1  0.000000  0.640501  0.331804  1.0
  O  O22  1  0.000000  0.359499  0.831804  1.0
  O  O23  1  0.640501  0.640501  0.831804  1.0
  O  O24  1  0.640501  0.000000  0.331804  1.0
  O  O25  1  0.307250  0.000000  0.170789  1.0
  O  O26  1  0.307250  0.307250  0.670789  1.0
  O  O27  1  0.000000  0.692750  0.670789  1.0
  O  O28  1  0.000000  0.307250  0.170789  1.0
  O  O29  1  0.692750  0.692750  0.170789  1.0
  O  O30  1  0.692750  0.000000  0.670789  1.0
