# generated using pymatgen
data_Li
_symmetry_space_group_name_H-M   'P 1'
_cell_length_a   2.88920832
_cell_length_b   4.90506665
_cell_length_c   4.90550975
_cell_angle_alpha   120.00299469
_cell_angle_beta   90.00000000
_cell_angle_gamma   90.00000000
_symmetry_Int_Tables_number   1
_chemical_formula_structural   Li
_chemical_formula_sum   Li3
_cell_volume   60.20401266
_cell_formula_units_Z   3
loop_
 _symmetry_equiv_pos_site_id
 _symmetry_equiv_pos_as_xyz
  1  'x, y, z'
loop_
 _atom_site_type_symbol
 _atom_site_label
 _atom_site_symmetry_multiplicity
 _atom_site_fract_x
 _atom_site_fract_y
 _atom_site_fract_z
 _atom_site_occupancy
  Li  Li1  1  0.000000  0.000000  0.000000  1.0
  Li  Li2  1  0.500000  0.333255  0.666627  1.0
  Li  Li3  1  0.500000  0.666745  0.333373  1.0
