# generated using pymatgen
data_TaS2
_symmetry_space_group_name_H-M   'P 1'
_cell_length_a   7.08925303
_cell_length_b   7.08925303
_cell_length_c   7.08925303
_cell_angle_alpha   27.28136017
_cell_angle_beta   27.28136017
_cell_angle_gamma   27.28136013
_symmetry_Int_Tables_number   1
_chemical_formula_structural   TaS2
_chemical_formula_sum   'Ta1 S2'
_cell_volume   66.04912014
_cell_formula_units_Z   1
loop_
 _symmetry_equiv_pos_site_id
 _symmetry_equiv_pos_as_xyz
  1  'x, y, z'
loop_
 _atom_site_type_symbol
 _atom_site_label
 _atom_site_symmetry_multiplicity
 _atom_site_fract_x
 _atom_site_fract_y
 _atom_site_fract_z
 _atom_site_occupancy
  Ta  Ta1  1  0.166765  0.166765  0.166765  1.0
  S  S2  1  0.576471  0.576471  0.576471  1.0
  S  S3  1  0.423764  0.423764  0.423764  1.0
