# generated using pymatgen
data_TaSe2
_symmetry_space_group_name_H-M   'P 1'
_cell_length_a   3.47936843
_cell_length_b   3.47936843
_cell_length_c   7.20316512
_cell_angle_alpha   76.02393036
_cell_angle_beta   76.02393036
_cell_angle_gamma   60.00000826
_symmetry_Int_Tables_number   1
_chemical_formula_structural   TaSe2
_chemical_formula_sum   'Ta1 Se2'
_cell_volume   72.52264332
_cell_formula_units_Z   1
loop_
 _symmetry_equiv_pos_site_id
 _symmetry_equiv_pos_as_xyz
  1  'x, y, z'
loop_
 _atom_site_type_symbol
 _atom_site_label
 _atom_site_symmetry_multiplicity
 _atom_site_fract_x
 _atom_site_fract_y
 _atom_site_fract_z
 _atom_site_occupancy
  Ta  Ta1  1  0.999753  0.999753  0.000740  1.0
  Se  Se2  1  0.747630  0.747630  0.757110  1.0
  Se  Se3  1  0.585617  0.585617  0.243150  1.0
