# generated using pymatgen
data_VPt2
_symmetry_space_group_name_H-M   'P 1'
_cell_length_a   2.74375396
_cell_length_b   3.82751191
_cell_length_c   4.83027969
_cell_angle_alpha   113.34082498
_cell_angle_beta   106.50004236
_cell_angle_gamma   90.00000000
_symmetry_Int_Tables_number   1
_chemical_formula_structural   VPt2
_chemical_formula_sum   'V1 Pt2'
_cell_volume   44.29086990
_cell_formula_units_Z   1
loop_
 _symmetry_equiv_pos_site_id
 _symmetry_equiv_pos_as_xyz
  1  'x, y, z'
loop_
 _atom_site_type_symbol
 _atom_site_label
 _atom_site_symmetry_multiplicity
 _atom_site_fract_x
 _atom_site_fract_y
 _atom_site_fract_z
 _atom_site_occupancy
  V  V1  1  0.000000  0.000000  0.000000  1.0
  Pt  Pt2  1  0.660315  0.660315  0.320630  1.0
  Pt  Pt3  1  0.339685  0.339685  0.679370  1.0
