# generated using pymatgen
data_Ho
_symmetry_space_group_name_H-M   'P 1'
_cell_length_a   3.54503485
_cell_length_b   3.54503485
_cell_length_c   8.79805401
_cell_angle_alpha   78.37724124
_cell_angle_beta   78.37724124
_cell_angle_gamma   60.00000547
_symmetry_Int_Tables_number   1
_chemical_formula_structural   Ho
_chemical_formula_sum   Ho3
_cell_volume   93.12721978
_cell_formula_units_Z   3
loop_
 _symmetry_equiv_pos_site_id
 _symmetry_equiv_pos_as_xyz
  1  'x, y, z'
loop_
 _atom_site_type_symbol
 _atom_site_label
 _atom_site_symmetry_multiplicity
 _atom_site_fract_x
 _atom_site_fract_y
 _atom_site_fract_z
 _atom_site_occupancy
  Ho  Ho1  1  0.000000  0.000000  0.000000  1.0
  Ho  Ho2  1  0.222059  0.222059  0.333824  1.0
  Ho  Ho3  1  0.777941  0.777941  0.666176  1.0
