# generated using pymatgen
data_NbS2
_symmetry_space_group_name_H-M   'P 1'
_cell_length_a   3.36218122
_cell_length_b   3.36218122
_cell_length_c   6.81621080
_cell_angle_alpha   75.72174152
_cell_angle_beta   75.72174152
_cell_angle_gamma   60.00000869
_symmetry_Int_Tables_number   1
_chemical_formula_structural   NbS2
_chemical_formula_sum   'Nb1 S2'
_cell_volume   63.96603254
_cell_formula_units_Z   1
loop_
 _symmetry_equiv_pos_site_id
 _symmetry_equiv_pos_as_xyz
  1  'x, y, z'
loop_
 _atom_site_type_symbol
 _atom_site_label
 _atom_site_symmetry_multiplicity
 _atom_site_fract_x
 _atom_site_fract_y
 _atom_site_fract_z
 _atom_site_occupancy
  Nb  Nb1  1  0.000269  0.000269  0.999192  1.0
  S  S2  1  0.746847  0.746847  0.759459  1.0
  S  S3  1  0.586884  0.586884  0.239349  1.0
