# generated using pymatgen
data_MoPt2
_symmetry_space_group_name_H-M   'P 1'
_cell_length_a   2.76518628
_cell_length_b   4.00303445
_cell_length_c   4.84790970
_cell_angle_alpha   114.38474225
_cell_angle_beta   106.57042528
_cell_angle_gamma   90.00000000
_symmetry_Int_Tables_number   1
_chemical_formula_structural   MoPt2
_chemical_formula_sum   'Mo1 Pt2'
_cell_volume   46.41730136
_cell_formula_units_Z   1
loop_
 _symmetry_equiv_pos_site_id
 _symmetry_equiv_pos_as_xyz
  1  'x, y, z'
loop_
 _atom_site_type_symbol
 _atom_site_label
 _atom_site_symmetry_multiplicity
 _atom_site_fract_x
 _atom_site_fract_y
 _atom_site_fract_z
 _atom_site_occupancy
  Mo  Mo1  1  0.000000  0.000000  0.000000  1.0
  Pt  Pt2  1  0.663768  0.663768  0.327536  1.0
  Pt  Pt3  1  0.336232  0.336232  0.672464  1.0
