# generated using pymatgen
data_LiFeP
_symmetry_space_group_name_H-M   'P 1'
_cell_length_a   2.84777448
_cell_length_b   2.84777448
_cell_length_c   4.61203556
_cell_angle_alpha   107.98288739
_cell_angle_beta   107.98288739
_cell_angle_gamma   90.00000000
_symmetry_Int_Tables_number   1
_chemical_formula_structural   LiFeP
_chemical_formula_sum   'Li1 Fe1 P1'
_cell_volume   33.64936234
_cell_formula_units_Z   1
loop_
 _symmetry_equiv_pos_site_id
 _symmetry_equiv_pos_as_xyz
  1  'x, y, z'
loop_
 _atom_site_type_symbol
 _atom_site_label
 _atom_site_symmetry_multiplicity
 _atom_site_fract_x
 _atom_site_fract_y
 _atom_site_fract_z
 _atom_site_occupancy
  Li  Li1  1  0.530943  0.530943  0.061887  1.0
  Fe  Fe2  1  0.226226  0.226226  0.452451  1.0
  P  P3  1  0.848431  0.848431  0.696862  1.0
