# generated using pymatgen
data_NaLuS2
_symmetry_space_group_name_H-M   'P 1'
_cell_length_a   3.90263912
_cell_length_b   3.90263912
_cell_length_c   7.00544269
_cell_angle_alpha   73.82671494
_cell_angle_beta   73.82671494
_cell_angle_gamma   60.00001314
_symmetry_Int_Tables_number   1
_chemical_formula_structural   NaLuS2
_chemical_formula_sum   'Na1 Lu1 S2'
_cell_volume   87.49246962
_cell_formula_units_Z   1
loop_
 _symmetry_equiv_pos_site_id
 _symmetry_equiv_pos_as_xyz
  1  'x, y, z'
loop_
 _atom_site_type_symbol
 _atom_site_label
 _atom_site_symmetry_multiplicity
 _atom_site_fract_x
 _atom_site_fract_y
 _atom_site_fract_z
 _atom_site_occupancy
  Na  Na1  1  0.000000  0.000000  0.000000  1.0
  Lu  Lu2  1  0.500000  0.500000  0.500000  1.0
  S  S3  1  0.241420  0.241420  0.275741  1.0
  S  S4  1  0.758580  0.758580  0.724259  1.0
