# generated using pymatgen
data_LaC2
_symmetry_space_group_name_H-M   'P 1'
_cell_length_a   3.93816860
_cell_length_b   3.93816860
_cell_length_c   4.31381582
_cell_angle_alpha   117.15892002
_cell_angle_beta   117.15892002
_cell_angle_gamma   90.00000000
_symmetry_Int_Tables_number   1
_chemical_formula_structural   LaC2
_chemical_formula_sum   'La1 C2'
_cell_volume   51.09658220
_cell_formula_units_Z   1
loop_
 _symmetry_equiv_pos_site_id
 _symmetry_equiv_pos_as_xyz
  1  'x, y, z'
loop_
 _atom_site_type_symbol
 _atom_site_label
 _atom_site_symmetry_multiplicity
 _atom_site_fract_x
 _atom_site_fract_y
 _atom_site_fract_z
 _atom_site_occupancy
  La  La1  1  0.000000  0.000000  0.000000  1.0
  C  C2  1  0.401288  0.401288  0.802576  1.0
  C  C3  1  0.598712  0.598712  0.197424  1.0
