# generated using pymatgen
data_TiPd3
_symmetry_space_group_name_H-M   'P 1'
_cell_length_a   3.93203349
_cell_length_b   3.93201370
_cell_length_c   3.93197593
_cell_angle_alpha   89.99992962
_cell_angle_beta   89.99984335
_cell_angle_gamma   90.00025777
_symmetry_Int_Tables_number   1
_chemical_formula_structural   TiPd3
_chemical_formula_sum   'Ti1 Pd3'
_cell_volume   60.79153101
_cell_formula_units_Z   1
loop_
 _symmetry_equiv_pos_site_id
 _symmetry_equiv_pos_as_xyz
  1  'x, y, z'
loop_
 _atom_site_type_symbol
 _atom_site_label
 _atom_site_symmetry_multiplicity
 _atom_site_fract_x
 _atom_site_fract_y
 _atom_site_fract_z
 _atom_site_occupancy
  Ti  Ti1  1  0.000000  0.999999  0.000000  1.0
  Pd  Pd2  1  0.000000  0.500001  0.500000  1.0
  Pd  Pd3  1  0.500000  0.000001  0.500000  1.0
  Pd  Pd4  1  0.500000  0.499999  0.000000  1.0
