# generated using pymatgen
data_NdPd
_symmetry_space_group_name_H-M   'P 1'
_cell_length_a   3.86897099
_cell_length_b   4.67676305
_cell_length_c   5.79864182
_cell_angle_alpha   90.00000000
_cell_angle_beta   70.51195878
_cell_angle_gamma   90.00000000
_symmetry_Int_Tables_number   1
_chemical_formula_structural   NdPd
_chemical_formula_sum   'Nd2 Pd2'
_cell_volume   98.91126676
_cell_formula_units_Z   2
loop_
 _symmetry_equiv_pos_site_id
 _symmetry_equiv_pos_as_xyz
  1  'x, y, z'
loop_
 _atom_site_type_symbol
 _atom_site_label
 _atom_site_symmetry_multiplicity
 _atom_site_fract_x
 _atom_site_fract_y
 _atom_site_fract_z
 _atom_site_occupancy
  Nd  Nd1  1  0.136232  0.750000  0.727536  1.0
  Nd  Nd2  1  0.863768  0.250000  0.272464  1.0
  Pd  Pd3  1  0.413691  0.750000  0.172618  1.0
  Pd  Pd4  1  0.586309  0.250000  0.827382  1.0
