# generated using pymatgen
data_VAg(PSe3)2
_symmetry_space_group_name_H-M   'P 1'
_cell_length_a   6.38306556
_cell_length_b   6.43986656
_cell_length_c   7.67488458
_cell_angle_alpha   82.47220928
_cell_angle_beta   74.67192103
_cell_angle_gamma   60.29134391
_symmetry_Int_Tables_number   1
_chemical_formula_structural   VAg(PSe3)2
_chemical_formula_sum   'V1 Ag1 P2 Se6'
_cell_volume   264.26885420
_cell_formula_units_Z   1
loop_
 _symmetry_equiv_pos_site_id
 _symmetry_equiv_pos_as_xyz
  1  'x, y, z'
loop_
 _atom_site_type_symbol
 _atom_site_label
 _atom_site_symmetry_multiplicity
 _atom_site_fract_x
 _atom_site_fract_y
 _atom_site_fract_z
 _atom_site_occupancy
  V  V1  1  0.321298  0.357403  0.000000  1.0
  Ag  Ag2  1  0.671387  0.657226  0.000000  1.0
  P  P3  1  0.040412  0.007172  0.850268  1.0
  P  P4  1  0.952416  0.007172  0.149732  1.0
  Se  Se5  1  0.967979  0.654567  0.235939  1.0
  Se  Se6  1  0.377454  0.654567  0.764061  1.0
  Se  Se7  1  0.116839  0.314856  0.767692  1.0
  Se  Se8  1  0.568305  0.314856  0.232308  1.0
  Se  Se9  1  0.241105  0.049490  0.227042  1.0
  Se  Se10  1  0.709404  0.049490  0.772958  1.0
