# generated using pymatgen
data_PrRhC2
_symmetry_space_group_name_H-M   'P 1'
_cell_length_a   3.77600544
_cell_length_b   4.08336668
_cell_length_c   4.08336668
_cell_angle_alpha   109.09951430
_cell_angle_beta   90.00000000
_cell_angle_gamma   90.00000000
_symmetry_Int_Tables_number   1
_chemical_formula_structural   PrRhC2
_chemical_formula_sum   'Pr1 Rh1 C2'
_cell_volume   59.49479560
_cell_formula_units_Z   1
loop_
 _symmetry_equiv_pos_site_id
 _symmetry_equiv_pos_as_xyz
  1  'x, y, z'
loop_
 _atom_site_type_symbol
 _atom_site_label
 _atom_site_symmetry_multiplicity
 _atom_site_fract_x
 _atom_site_fract_y
 _atom_site_fract_z
 _atom_site_occupancy
  Pr  Pr1  1  0.000000  0.008410  0.991590  1.0
  Rh  Rh2  1  0.500000  0.385563  0.614437  1.0
  C  C3  1  0.500000  0.837980  0.446953  1.0
  C  C4  1  0.500000  0.553047  0.162020  1.0
