# generated using pymatgen
data_B2CN
_symmetry_space_group_name_H-M   'P 1'
_cell_length_a   2.57058348
_cell_length_b   2.57049130
_cell_length_c   4.44096026
_cell_angle_alpha   90.00000001
_cell_angle_beta   90.00377011
_cell_angle_gamma   119.99882235
_symmetry_Int_Tables_number   1
_chemical_formula_structural   B2CN
_chemical_formula_sum   'B2 C1 N1'
_cell_volume   25.41326829
_cell_formula_units_Z   1
loop_
 _symmetry_equiv_pos_site_id
 _symmetry_equiv_pos_as_xyz
  1  'x, y, z'
loop_
 _atom_site_type_symbol
 _atom_site_label
 _atom_site_symmetry_multiplicity
 _atom_site_fract_x
 _atom_site_fract_y
 _atom_site_fract_z
 _atom_site_occupancy
  B  B1  1  0.000003  0.000001  0.170512  1.0
  B  B2  1  0.333416  0.666708  0.641737  1.0
  C  C3  1  0.333385  0.666693  0.003790  1.0
  N  N4  1  0.999996  0.999998  0.512961  1.0
