# generated using pymatgen
data_ErTlTe2
_symmetry_space_group_name_H-M   'P 1'
_cell_length_a   4.43999143
_cell_length_b   4.43999103
_cell_length_c   8.58573938
_cell_angle_alpha   75.01490419
_cell_angle_beta   75.01490374
_cell_angle_gamma   60.00000306
_symmetry_Int_Tables_number   1
_chemical_formula_structural   ErTlTe2
_chemical_formula_sum   'Er1 Tl1 Te2'
_cell_volume   139.89353872
_cell_formula_units_Z   1
loop_
 _symmetry_equiv_pos_site_id
 _symmetry_equiv_pos_as_xyz
  1  'x, y, z'
loop_
 _atom_site_type_symbol
 _atom_site_label
 _atom_site_symmetry_multiplicity
 _atom_site_fract_x
 _atom_site_fract_y
 _atom_site_fract_z
 _atom_site_occupancy
  Er  Er1  1  0.000000  0.000000  0.000000  1.0
  Tl  Tl2  1  0.500000  0.500000  0.500000  1.0
  Te  Te3  1  0.736647  0.736647  0.790059  1.0
  Te  Te4  1  0.263353  0.263353  0.209941  1.0
