# generated using pymatgen
data_LuTlTe2
_symmetry_space_group_name_H-M   'P 1'
_cell_length_a   4.37771087
_cell_length_b   4.37771091
_cell_length_c   8.61063334
_cell_angle_alpha   75.27359014
_cell_angle_beta   75.27359216
_cell_angle_gamma   59.99999980
_symmetry_Int_Tables_number   1
_chemical_formula_structural   LuTlTe2
_chemical_formula_sum   'Lu1 Tl1 Te2'
_cell_volume   136.61396810
_cell_formula_units_Z   1
loop_
 _symmetry_equiv_pos_site_id
 _symmetry_equiv_pos_as_xyz
  1  'x, y, z'
loop_
 _atom_site_type_symbol
 _atom_site_label
 _atom_site_symmetry_multiplicity
 _atom_site_fract_x
 _atom_site_fract_y
 _atom_site_fract_z
 _atom_site_occupancy
  Lu  Lu1  1  0.500000  0.500000  0.500000  1.0
  Tl  Tl2  1  0.000000  0.000000  0.000000  1.0
  Te  Te3  1  0.763987  0.763987  0.708038  1.0
  Te  Te4  1  0.236013  0.236013  0.291962  1.0
