# generated using pymatgen
data_TaHgS2
_symmetry_space_group_name_H-M   'P 1'
_cell_length_a   3.37942638
_cell_length_b   3.37942624
_cell_length_c   9.89375140
_cell_angle_alpha   80.16648461
_cell_angle_beta   80.16648447
_cell_angle_gamma   60.00000141
_symmetry_Int_Tables_number   1
_chemical_formula_structural   TaHgS2
_chemical_formula_sum   'Ta1 Hg1 S2'
_cell_volume   95.93212060
_cell_formula_units_Z   1
loop_
 _symmetry_equiv_pos_site_id
 _symmetry_equiv_pos_as_xyz
  1  'x, y, z'
loop_
 _atom_site_type_symbol
 _atom_site_label
 _atom_site_symmetry_multiplicity
 _atom_site_fract_x
 _atom_site_fract_y
 _atom_site_fract_z
 _atom_site_occupancy
  Ta  Ta1  1  0.000000  0.000000  0.000000  1.0
  Hg  Hg2  1  0.500000  0.500000  0.500000  1.0
  S  S3  1  0.719405  0.719405  0.841786  1.0
  S  S4  1  0.280595  0.280595  0.158214  1.0
