# generated using pymatgen
data_TmAu
_symmetry_space_group_name_H-M   'P 1'
_cell_length_a   3.64743137
_cell_length_b   4.63862741
_cell_length_c   5.77018580
_cell_angle_alpha   90.00000000
_cell_angle_beta   108.42472014
_cell_angle_gamma   90.00000000
_symmetry_Int_Tables_number   1
_chemical_formula_structural   TmAu
_chemical_formula_sum   'Tm2 Au2'
_cell_volume   92.62186203
_cell_formula_units_Z   2
loop_
 _symmetry_equiv_pos_site_id
 _symmetry_equiv_pos_as_xyz
  1  'x, y, z'
loop_
 _atom_site_type_symbol
 _atom_site_label
 _atom_site_symmetry_multiplicity
 _atom_site_fract_x
 _atom_site_fract_y
 _atom_site_fract_z
 _atom_site_occupancy
  Tm  Tm1  1  0.860033  0.750000  0.720066  1.0
  Tm  Tm2  1  0.139967  0.250000  0.279934  1.0
  Au  Au3  1  0.589025  0.750000  0.178051  1.0
  Au  Au4  1  0.410975  0.250000  0.821949  1.0
