# generated using pymatgen
data_SmNi
_symmetry_space_group_name_H-M   'P 1'
_cell_length_a   3.75734101
_cell_length_b   4.30235360
_cell_length_c   5.54309831
_cell_angle_alpha   90.00000000
_cell_angle_beta   70.18887192
_cell_angle_gamma   90.00000000
_symmetry_Int_Tables_number   1
_chemical_formula_structural   SmNi
_chemical_formula_sum   'Sm2 Ni2'
_cell_volume   84.30309323
_cell_formula_units_Z   2
loop_
 _symmetry_equiv_pos_site_id
 _symmetry_equiv_pos_as_xyz
  1  'x, y, z'
loop_
 _atom_site_type_symbol
 _atom_site_label
 _atom_site_symmetry_multiplicity
 _atom_site_fract_x
 _atom_site_fract_y
 _atom_site_fract_z
 _atom_site_occupancy
  Sm  Sm1  1  0.138587  0.750000  0.722826  1.0
  Sm  Sm2  1  0.861413  0.250000  0.277174  1.0
  Ni  Ni3  1  0.427138  0.750000  0.145725  1.0
  Ni  Ni4  1  0.572862  0.250000  0.854275  1.0
