# generated using pymatgen
data_YSi
_symmetry_space_group_name_H-M   'P 1'
_cell_length_a   3.84254612
_cell_length_b   4.28920165
_cell_length_c   5.69978526
_cell_angle_alpha   112.10220580
_cell_angle_beta   90.00000000
_cell_angle_gamma   90.00000000
_symmetry_Int_Tables_number   1
_chemical_formula_structural   YSi
_chemical_formula_sum   'Y2 Si2'
_cell_volume   87.03743857
_cell_formula_units_Z   2
loop_
 _symmetry_equiv_pos_site_id
 _symmetry_equiv_pos_as_xyz
  1  'x, y, z'
loop_
 _atom_site_type_symbol
 _atom_site_label
 _atom_site_symmetry_multiplicity
 _atom_site_fract_x
 _atom_site_fract_y
 _atom_site_fract_z
 _atom_site_occupancy
  Y  Y1  1  0.250000  0.859785  0.719570  1.0
  Y  Y2  1  0.750000  0.140215  0.280430  1.0
  Si  Si3  1  0.250000  0.576036  0.152072  1.0
  Si  Si4  1  0.750000  0.423964  0.847928  1.0
