# generated using pymatgen
data_CaSiPd
_symmetry_space_group_name_H-M   'P 1'
_cell_length_a   5.76865579
_cell_length_b   5.91284694
_cell_length_c   7.42536586
_cell_angle_alpha   109.42077631
_cell_angle_beta   90.00000000
_cell_angle_gamma   90.00000000
_symmetry_Int_Tables_number   1
_chemical_formula_structural   CaSiPd
_chemical_formula_sum   'Ca4 Si4 Pd4'
_cell_volume   238.86243449
_cell_formula_units_Z   4
loop_
 _symmetry_equiv_pos_site_id
 _symmetry_equiv_pos_as_xyz
  1  'x, y, z'
loop_
 _atom_site_type_symbol
 _atom_site_label
 _atom_site_symmetry_multiplicity
 _atom_site_fract_x
 _atom_site_fract_y
 _atom_site_fract_z
 _atom_site_occupancy
  Ca  Ca1  1  0.126716  0.318675  0.115983  1.0
  Ca  Ca2  1  0.373284  0.818675  0.615983  1.0
  Ca  Ca3  1  0.873284  0.681325  0.884017  1.0
  Ca  Ca4  1  0.626716  0.181325  0.384017  1.0
  Si  Si5  1  0.617125  0.170914  0.955409  1.0
  Si  Si6  1  0.382875  0.829086  0.044591  1.0
  Si  Si7  1  0.117125  0.329086  0.544591  1.0
  Si  Si8  1  0.882875  0.670914  0.455409  1.0
  Pd  Pd9  1  0.611827  0.576620  0.189786  1.0
  Pd  Pd10  1  0.388173  0.423380  0.810214  1.0
  Pd  Pd11  1  0.888173  0.076620  0.689786  1.0
  Pd  Pd12  1  0.111827  0.923380  0.310214  1.0
