# generated using pymatgen
data_TlBiTe2
_symmetry_space_group_name_H-M   'P 1'
_cell_length_a   4.59282338
_cell_length_b   4.59282338
_cell_length_c   8.43262898
_cell_angle_alpha   74.19736899
_cell_angle_beta   74.19736899
_cell_angle_gamma   60.00000550
_symmetry_Int_Tables_number   1
_chemical_formula_structural   TlBiTe2
_chemical_formula_sum   'Tl1 Bi1 Te2'
_cell_volume   146.23261935
_cell_formula_units_Z   1
loop_
 _symmetry_equiv_pos_site_id
 _symmetry_equiv_pos_as_xyz
  1  'x, y, z'
loop_
 _atom_site_type_symbol
 _atom_site_label
 _atom_site_symmetry_multiplicity
 _atom_site_fract_x
 _atom_site_fract_y
 _atom_site_fract_z
 _atom_site_occupancy
  Tl  Tl1  1  0.500000  0.500000  0.500000  1.0
  Bi  Bi2  1  0.000000  0.000000  0.000000  1.0
  Te  Te3  1  0.260083  0.260083  0.219752  1.0
  Te  Te4  1  0.739917  0.739917  0.780248  1.0
