# generated using pymatgen
data_ThCoC2
_symmetry_space_group_name_H-M   'P 1'
_cell_length_a   3.82461272
_cell_length_b   3.79813976
_cell_length_c   3.79813976
_cell_angle_alpha   106.21573812
_cell_angle_beta   90.00000000
_cell_angle_gamma   90.00000000
_symmetry_Int_Tables_number   1
_chemical_formula_structural   ThCoC2
_chemical_formula_sum   'Th1 Co1 C2'
_cell_volume   52.97838872
_cell_formula_units_Z   1
loop_
 _symmetry_equiv_pos_site_id
 _symmetry_equiv_pos_as_xyz
  1  'x, y, z'
loop_
 _atom_site_type_symbol
 _atom_site_label
 _atom_site_symmetry_multiplicity
 _atom_site_fract_x
 _atom_site_fract_y
 _atom_site_fract_z
 _atom_site_occupancy
  Th  Th1  1  0.000000  0.000247  0.999753  1.0
  Co  Co2  1  0.500000  0.391567  0.608433  1.0
  C  C3  1  0.500000  0.851643  0.458457  1.0
  C  C4  1  0.500000  0.541543  0.148357  1.0
