# generated using pymatgen
data_YAl
_symmetry_space_group_name_H-M   'P 1'
_cell_length_a   3.83281657
_cell_length_b   4.48258562
_cell_length_c   6.08344055
_cell_angle_alpha   90.00000000
_cell_angle_beta   108.36204944
_cell_angle_gamma   90.00000000
_symmetry_Int_Tables_number   1
_chemical_formula_structural   YAl
_chemical_formula_sum   'Y2 Al2'
_cell_volume   99.19755109
_cell_formula_units_Z   2
loop_
 _symmetry_equiv_pos_site_id
 _symmetry_equiv_pos_as_xyz
  1  'x, y, z'
loop_
 _atom_site_type_symbol
 _atom_site_label
 _atom_site_symmetry_multiplicity
 _atom_site_fract_x
 _atom_site_fract_y
 _atom_site_fract_z
 _atom_site_occupancy
  Y  Y1  1  0.649738  0.750000  0.299477  1.0
  Y  Y2  1  0.350262  0.250000  0.700523  1.0
  Al  Al3  1  0.930212  0.750000  0.860423  1.0
  Al  Al4  1  0.069788  0.250000  0.139577  1.0
