# generated using pymatgen
data_LiScS2
_symmetry_space_group_name_H-M   'P 1'
_cell_length_a   3.69009654
_cell_length_b   3.69009654
_cell_length_c   6.44268832
_cell_angle_alpha   73.35872583
_cell_angle_beta   73.35872583
_cell_angle_gamma   59.99999744
_symmetry_Int_Tables_number   1
_chemical_formula_structural   LiScS2
_chemical_formula_sum   'Li1 Sc1 S2'
_cell_volume   71.70123934
_cell_formula_units_Z   1
loop_
 _symmetry_equiv_pos_site_id
 _symmetry_equiv_pos_as_xyz
  1  'x, y, z'
loop_
 _atom_site_type_symbol
 _atom_site_label
 _atom_site_symmetry_multiplicity
 _atom_site_fract_x
 _atom_site_fract_y
 _atom_site_fract_z
 _atom_site_occupancy
  Li  Li1  1  0.000000  0.000000  0.000000  1.0
  Sc  Sc2  1  0.500000  0.500000  0.500000  1.0
  S  S3  1  0.246841  0.246841  0.259477  1.0
  S  S4  1  0.753159  0.753159  0.740523  1.0
