# generated using pymatgen
data_NiHO2
_symmetry_space_group_name_H-M   'P 1'
_cell_length_a   2.97451957
_cell_length_b   2.97493643
_cell_length_c   4.67512732
_cell_angle_alpha   90.00000003
_cell_angle_beta   89.98792703
_cell_angle_gamma   120.00465364
_symmetry_Int_Tables_number   1
_chemical_formula_structural   NiHO2
_chemical_formula_sum   'Ni1 H1 O2'
_cell_volume   35.82599119
_cell_formula_units_Z   1
loop_
 _symmetry_equiv_pos_site_id
 _symmetry_equiv_pos_as_xyz
  1  'x, y, z'
loop_
 _atom_site_type_symbol
 _atom_site_label
 _atom_site_symmetry_multiplicity
 _atom_site_fract_x
 _atom_site_fract_y
 _atom_site_fract_z
 _atom_site_occupancy
  Ni  Ni1  1  0.999978  0.999989  0.008877  1.0
  H  H2  1  0.333481  0.666741  0.436153  1.0
  O  O3  1  0.666571  0.333285  0.798935  1.0
  O  O4  1  0.333370  0.666685  0.226065  1.0
