# generated using pymatgen
data_Ba3Nb5O15
_symmetry_space_group_name_H-M   'P 1'
_cell_length_a   4.04279970
_cell_length_b   12.82900987
_cell_length_c   12.82900987
_cell_angle_alpha   90.00000000
_cell_angle_beta   90.00000000
_cell_angle_gamma   90.00000000
_symmetry_Int_Tables_number   1
_chemical_formula_structural   Ba3Nb5O15
_chemical_formula_sum   'Ba6 Nb10 O30'
_cell_volume   665.37810116
_cell_formula_units_Z   2
loop_
 _symmetry_equiv_pos_site_id
 _symmetry_equiv_pos_as_xyz
  1  'x, y, z'
loop_
 _atom_site_type_symbol
 _atom_site_label
 _atom_site_symmetry_multiplicity
 _atom_site_fract_x
 _atom_site_fract_y
 _atom_site_fract_z
 _atom_site_occupancy
  Ba  Ba1  1  0.000000  0.832416  0.332416  1.0
  Ba  Ba2  1  0.000000  0.667584  0.832416  1.0
  Ba  Ba3  1  0.000000  0.332416  0.167584  1.0
  Ba  Ba4  1  0.000000  0.167584  0.667584  1.0
  Ba  Ba5  1  0.000000  0.500000  0.500000  1.0
  Ba  Ba6  1  0.000000  0.000000  0.000000  1.0
  Nb  Nb7  1  0.500000  0.287446  0.422180  1.0
  Nb  Nb8  1  0.500000  0.712554  0.577820  1.0
  Nb  Nb9  1  0.500000  0.422180  0.712554  1.0
  Nb  Nb10  1  0.500000  0.577820  0.287446  1.0
  Nb  Nb11  1  0.500000  0.922180  0.787446  1.0
  Nb  Nb12  1  0.500000  0.212554  0.922180  1.0
  Nb  Nb13  1  0.500000  0.787446  0.077820  1.0
  Nb  Nb14  1  0.500000  0.077820  0.212554  1.0
  Nb  Nb15  1  0.500000  0.500000  0.000000  1.0
  Nb  Nb16  1  0.500000  0.000000  0.500000  1.0
  O  O17  1  0.500000  0.431591  0.360333  1.0
  O  O18  1  0.500000  0.568409  0.639667  1.0
  O  O19  1  0.500000  0.360333  0.568409  1.0
  O  O20  1  0.500000  0.639667  0.431591  1.0
  O  O21  1  0.500000  0.860333  0.931591  1.0
  O  O22  1  0.500000  0.068409  0.860333  1.0
  O  O23  1  0.500000  0.931591  0.139667  1.0
  O  O24  1  0.500000  0.139667  0.068409  1.0
  O  O25  1  0.500000  0.492991  0.156749  1.0
  O  O26  1  0.500000  0.507009  0.843251  1.0
  O  O27  1  0.500000  0.156749  0.507009  1.0
  O  O28  1  0.500000  0.843251  0.492991  1.0
  O  O29  1  0.500000  0.656749  0.992991  1.0
  O  O30  1  0.500000  0.007009  0.656749  1.0
  O  O31  1  0.500000  0.992991  0.343251  1.0
  O  O32  1  0.500000  0.343251  0.007009  1.0
  O  O33  1  0.000000  0.000000  0.500000  1.0
  O  O34  1  0.000000  0.500000  0.000000  1.0
  O  O35  1  0.500000  0.280057  0.780057  1.0
  O  O36  1  0.500000  0.219943  0.280057  1.0
  O  O37  1  0.500000  0.780057  0.719943  1.0
  O  O38  1  0.500000  0.719943  0.219943  1.0
  O  O39  1  0.000000  0.078145  0.208260  1.0
  O  O40  1  0.000000  0.791740  0.078145  1.0
  O  O41  1  0.000000  0.208260  0.921855  1.0
  O  O42  1  0.000000  0.921855  0.791740  1.0
  O  O43  1  0.000000  0.578145  0.291740  1.0
  O  O44  1  0.000000  0.421855  0.708260  1.0
  O  O45  1  0.000000  0.708260  0.578145  1.0
  O  O46  1  0.000000  0.291740  0.421855  1.0
