# generated using pymatgen
data_NaYbS2
_symmetry_space_group_name_H-M   'P 1'
_cell_length_a   4.03434026
_cell_length_b   4.03434026
_cell_length_c   7.01877692
_cell_angle_alpha   73.29786537
_cell_angle_beta   73.29786537
_cell_angle_gamma   59.99999673
_symmetry_Int_Tables_number   1
_chemical_formula_structural   NaYbS2
_chemical_formula_sum   'Na1 Yb1 S2'
_cell_volume   93.32557808
_cell_formula_units_Z   1
loop_
 _symmetry_equiv_pos_site_id
 _symmetry_equiv_pos_as_xyz
  1  'x, y, z'
loop_
 _atom_site_type_symbol
 _atom_site_label
 _atom_site_symmetry_multiplicity
 _atom_site_fract_x
 _atom_site_fract_y
 _atom_site_fract_z
 _atom_site_occupancy
  Na  Na1  1  0.500000  0.500000  0.500000  1.0
  Yb  Yb2  1  0.000000  0.000000  0.000000  1.0
  S  S3  1  0.255941  0.255941  0.232178  1.0
  S  S4  1  0.744059  0.744059  0.767822  1.0
