# generated using pymatgen
data_CaZn
_symmetry_space_group_name_H-M   'P 1'
_cell_length_a   4.31771005
_cell_length_b   4.33910522
_cell_length_c   6.11125175
_cell_angle_alpha   90.00000000
_cell_angle_beta   110.68678372
_cell_angle_gamma   90.00000000
_symmetry_Int_Tables_number   1
_chemical_formula_structural   CaZn
_chemical_formula_sum   'Ca2 Zn2'
_cell_volume   107.11233320
_cell_formula_units_Z   2
loop_
 _symmetry_equiv_pos_site_id
 _symmetry_equiv_pos_as_xyz
  1  'x, y, z'
loop_
 _atom_site_type_symbol
 _atom_site_label
 _atom_site_symmetry_multiplicity
 _atom_site_fract_x
 _atom_site_fract_y
 _atom_site_fract_z
 _atom_site_occupancy
  Ca  Ca1  1  0.854194  0.250000  0.708388  1.0
  Ca  Ca2  1  0.145806  0.750000  0.291612  1.0
  Zn  Zn3  1  0.565082  0.250000  0.130163  1.0
  Zn  Zn4  1  0.434918  0.750000  0.869837  1.0
