# generated using pymatgen
data_TmTlTe2
_symmetry_space_group_name_H-M   'P 1'
_cell_length_a   4.41605930
_cell_length_b   4.41605890
_cell_length_c   8.60761372
_cell_angle_alpha   75.13629887
_cell_angle_beta   75.13629841
_cell_angle_gamma   60.00000297
_symmetry_Int_Tables_number   1
_chemical_formula_structural   TmTlTe2
_chemical_formula_sum   'Tm1 Tl1 Te2'
_cell_volume   138.84913868
_cell_formula_units_Z   1
loop_
 _symmetry_equiv_pos_site_id
 _symmetry_equiv_pos_as_xyz
  1  'x, y, z'
loop_
 _atom_site_type_symbol
 _atom_site_label
 _atom_site_symmetry_multiplicity
 _atom_site_fract_x
 _atom_site_fract_y
 _atom_site_fract_z
 _atom_site_occupancy
  Tm  Tm1  1  0.500000  0.500000  0.500000  1.0
  Tl  Tl2  1  0.000000  0.000000  0.000000  1.0
  Te  Te3  1  0.763758  0.763758  0.708725  1.0
  Te  Te4  1  0.236242  0.236242  0.291275  1.0
