# generated using pymatgen
data_TbTlTe2
_symmetry_space_group_name_H-M   'P 1'
_cell_length_a   4.46258445
_cell_length_b   4.46258429
_cell_length_c   8.63394829
_cell_angle_alpha   75.02293228
_cell_angle_beta   75.02293008
_cell_angle_gamma   60.00000126
_symmetry_Int_Tables_number   1
_chemical_formula_structural   TbTlTe2
_chemical_formula_sum   'Tb1 Tl1 Te2'
_cell_volume   142.12166478
_cell_formula_units_Z   1
loop_
 _symmetry_equiv_pos_site_id
 _symmetry_equiv_pos_as_xyz
  1  'x, y, z'
loop_
 _atom_site_type_symbol
 _atom_site_label
 _atom_site_symmetry_multiplicity
 _atom_site_fract_x
 _atom_site_fract_y
 _atom_site_fract_z
 _atom_site_occupancy
  Tb  Tb1  1  0.000000  0.000000  0.000000  1.0
  Tl  Tl2  1  0.500000  0.500000  0.500000  1.0
  Te  Te3  1  0.737846  0.737846  0.786462  1.0
  Te  Te4  1  0.262154  0.262154  0.213538  1.0
