# generated using pymatgen
data_Yb2Mg
_symmetry_space_group_name_H-M   'P 1'
_cell_length_a   3.79044003
_cell_length_b   6.55026963
_cell_length_c   9.41247104
_cell_angle_alpha   68.69876577
_cell_angle_beta   90.00000000
_cell_angle_gamma   106.81812703
_symmetry_Int_Tables_number   1
_chemical_formula_structural   Yb2Mg
_chemical_formula_sum   'Yb4 Mg2'
_cell_volume   206.96597046
_cell_formula_units_Z   2
loop_
 _symmetry_equiv_pos_site_id
 _symmetry_equiv_pos_as_xyz
  1  'x, y, z'
loop_
 _atom_site_type_symbol
 _atom_site_label
 _atom_site_symmetry_multiplicity
 _atom_site_fract_x
 _atom_site_fract_y
 _atom_site_fract_z
 _atom_site_occupancy
  Yb  Yb1  1  0.023016  0.046031  0.931279  1.0
  Yb  Yb2  1  0.699207  0.398415  0.124275  1.0
  Yb  Yb3  1  0.371122  0.742245  0.323020  1.0
  Yb  Yb4  1  0.351100  0.702200  0.732536  1.0
  Mg  Mg5  1  0.054014  0.108029  0.447942  1.0
  Mg  Mg6  1  0.668207  0.336414  0.607615  1.0
