# generated using pymatgen
data_NaHoSe2
_symmetry_space_group_name_H-M   'P 1'
_cell_length_a   4.12975952
_cell_length_b   4.12975981
_cell_length_c   7.37905255
_cell_angle_alpha   73.74994411
_cell_angle_beta   73.74994218
_cell_angle_gamma   59.99999760
_symmetry_Int_Tables_number   1
_chemical_formula_structural   NaHoSe2
_chemical_formula_sum   'Na1 Ho1 Se2'
_cell_volume   103.14217109
_cell_formula_units_Z   1
loop_
 _symmetry_equiv_pos_site_id
 _symmetry_equiv_pos_as_xyz
  1  'x, y, z'
loop_
 _atom_site_type_symbol
 _atom_site_label
 _atom_site_symmetry_multiplicity
 _atom_site_fract_x
 _atom_site_fract_y
 _atom_site_fract_z
 _atom_site_occupancy
  Na  Na1  1  0.500000  0.500000  0.500000  1.0
  Ho  Ho2  1  0.000000  0.000000  0.000000  1.0
  Se  Se3  1  0.743166  0.743166  0.770502  1.0
  Se  Se4  1  0.256834  0.256834  0.229498  1.0
