# generated using pymatgen
data_TbPd
_symmetry_space_group_name_H-M   'P 1'
_cell_length_a   3.72199919
_cell_length_b   4.63028812
_cell_length_c   5.61388184
_cell_angle_alpha   90.00000000
_cell_angle_beta   70.64017942
_cell_angle_gamma   90.00000000
_symmetry_Int_Tables_number   1
_chemical_formula_structural   TbPd
_chemical_formula_sum   'Tb2 Pd2'
_cell_volume   91.27858793
_cell_formula_units_Z   2
loop_
 _symmetry_equiv_pos_site_id
 _symmetry_equiv_pos_as_xyz
  1  'x, y, z'
loop_
 _atom_site_type_symbol
 _atom_site_label
 _atom_site_symmetry_multiplicity
 _atom_site_fract_x
 _atom_site_fract_y
 _atom_site_fract_z
 _atom_site_occupancy
  Tb  Tb1  1  0.137022  0.750000  0.725956  1.0
  Tb  Tb2  1  0.862978  0.250000  0.274044  1.0
  Pd  Pd3  1  0.414428  0.750000  0.171144  1.0
  Pd  Pd4  1  0.585572  0.250000  0.828856  1.0
