# generated using pymatgen
data_CaSi
_symmetry_space_group_name_H-M   'P 1'
_cell_length_a   3.90152190
_cell_length_b   4.56003271
_cell_length_c   5.81803608
_cell_angle_alpha   113.07200420
_cell_angle_beta   90.00000000
_cell_angle_gamma   90.00000000
_symmetry_Int_Tables_number   1
_chemical_formula_structural   CaSi
_chemical_formula_sum   'Ca2 Si2'
_cell_volume   95.22970174
_cell_formula_units_Z   2
loop_
 _symmetry_equiv_pos_site_id
 _symmetry_equiv_pos_as_xyz
  1  'x, y, z'
loop_
 _atom_site_type_symbol
 _atom_site_label
 _atom_site_symmetry_multiplicity
 _atom_site_fract_x
 _atom_site_fract_y
 _atom_site_fract_z
 _atom_site_occupancy
  Ca  Ca1  1  0.250000  0.861367  0.722733  1.0
  Ca  Ca2  1  0.750000  0.138633  0.277267  1.0
  Si  Si3  1  0.250000  0.569044  0.138088  1.0
  Si  Si4  1  0.750000  0.430956  0.861912  1.0
