# generated using pymatgen
data_DyTlTe2
_symmetry_space_group_name_H-M   'P 1'
_cell_length_a   4.44710946
_cell_length_b   4.44710907
_cell_length_c   8.63314271
_cell_angle_alpha   75.07465389
_cell_angle_beta   75.07465344
_cell_angle_gamma   60.00000279
_symmetry_Int_Tables_number   1
_chemical_formula_structural   DyTlTe2
_chemical_formula_sum   'Dy1 Tl1 Te2'
_cell_volume   141.17099546
_cell_formula_units_Z   1
loop_
 _symmetry_equiv_pos_site_id
 _symmetry_equiv_pos_as_xyz
  1  'x, y, z'
loop_
 _atom_site_type_symbol
 _atom_site_label
 _atom_site_symmetry_multiplicity
 _atom_site_fract_x
 _atom_site_fract_y
 _atom_site_fract_z
 _atom_site_occupancy
  Dy  Dy1  1  0.000000  0.000000  0.000000  1.0
  Tl  Tl2  1  0.500000  0.500000  0.500000  1.0
  Te  Te3  1  0.737551  0.737551  0.787347  1.0
  Te  Te4  1  0.262449  0.262449  0.212653  1.0
