# generated using pymatgen
data_HoTlTe2
_symmetry_space_group_name_H-M   'P 1'
_cell_length_a   4.43140154
_cell_length_b   4.43140159
_cell_length_c   8.62696401
_cell_angle_alpha   75.11769311
_cell_angle_beta   75.11769514
_cell_angle_gamma   59.99999972
_symmetry_Int_Tables_number   1
_chemical_formula_structural   HoTlTe2
_chemical_formula_sum   'Ho1 Tl1 Te2'
_cell_volume   140.11341424
_cell_formula_units_Z   1
loop_
 _symmetry_equiv_pos_site_id
 _symmetry_equiv_pos_as_xyz
  1  'x, y, z'
loop_
 _atom_site_type_symbol
 _atom_site_label
 _atom_site_symmetry_multiplicity
 _atom_site_fract_x
 _atom_site_fract_y
 _atom_site_fract_z
 _atom_site_occupancy
  Ho  Ho1  1  0.000000  0.000000  0.000000  1.0
  Tl  Tl2  1  0.500000  0.500000  0.500000  1.0
  Te  Te3  1  0.737044  0.737044  0.788868  1.0
  Te  Te4  1  0.262956  0.262956  0.211132  1.0
