# generated using pymatgen
data_CaSiPt
_symmetry_space_group_name_H-M   'P 1'
_cell_length_a   5.88222279
_cell_length_b   5.94328528
_cell_length_c   7.28693801
_cell_angle_alpha   109.22747089
_cell_angle_beta   90.00000000
_cell_angle_gamma   90.00000000
_symmetry_Int_Tables_number   1
_chemical_formula_structural   CaSiPt
_chemical_formula_sum   'Ca4 Si4 Pt4'
_cell_volume   240.53909102
_cell_formula_units_Z   4
loop_
 _symmetry_equiv_pos_site_id
 _symmetry_equiv_pos_as_xyz
  1  'x, y, z'
loop_
 _atom_site_type_symbol
 _atom_site_label
 _atom_site_symmetry_multiplicity
 _atom_site_fract_x
 _atom_site_fract_y
 _atom_site_fract_z
 _atom_site_occupancy
  Ca  Ca1  1  0.128829  0.317892  0.114246  1.0
  Ca  Ca2  1  0.371171  0.817892  0.614246  1.0
  Ca  Ca3  1  0.871171  0.682108  0.885754  1.0
  Ca  Ca4  1  0.628829  0.182108  0.385754  1.0
  Si  Si5  1  0.620622  0.179962  0.947032  1.0
  Si  Si6  1  0.379378  0.820038  0.052968  1.0
  Si  Si7  1  0.120622  0.320038  0.552968  1.0
  Si  Si8  1  0.879378  0.679962  0.447032  1.0
  Pt  Pt9  1  0.608632  0.569108  0.191603  1.0
  Pt  Pt10  1  0.391368  0.430892  0.808397  1.0
  Pt  Pt11  1  0.891368  0.069108  0.691603  1.0
  Pt  Pt12  1  0.108632  0.930892  0.308397  1.0
