# generated using pymatgen
data_MnFe3
_symmetry_space_group_name_H-M   'P 1'
_cell_length_a   2.82769475
_cell_length_b   2.82769475
_cell_length_c   5.69385178
_cell_angle_alpha   90.00000000
_cell_angle_beta   90.00000000
_cell_angle_gamma   90.00000000
_symmetry_Int_Tables_number   1
_chemical_formula_structural   MnFe3
_chemical_formula_sum   'Mn1 Fe3'
_cell_volume   45.52722802
_cell_formula_units_Z   1
loop_
 _symmetry_equiv_pos_site_id
 _symmetry_equiv_pos_as_xyz
  1  'x, y, z'
loop_
 _atom_site_type_symbol
 _atom_site_label
 _atom_site_symmetry_multiplicity
 _atom_site_fract_x
 _atom_site_fract_y
 _atom_site_fract_z
 _atom_site_occupancy
  Mn  Mn1  1  0.500000  0.500000  0.750000  1.0
  Fe  Fe2  1  0.000000  0.000000  0.997267  1.0
  Fe  Fe3  1  0.500000  0.500000  0.250000  1.0
  Fe  Fe4  1  0.000000  0.000000  0.502733  1.0
