# generated using pymatgen
data_HfBe
_symmetry_space_group_name_H-M   'P 1'
_cell_length_a   3.33850645
_cell_length_b   3.73880584
_cell_length_c   5.28641283
_cell_angle_alpha   90.00000000
_cell_angle_beta   71.59312251
_cell_angle_gamma   90.00000000
_symmetry_Int_Tables_number   1
_chemical_formula_structural   HfBe
_chemical_formula_sum   'Hf2 Be2'
_cell_volume   62.60922527
_cell_formula_units_Z   2
loop_
 _symmetry_equiv_pos_site_id
 _symmetry_equiv_pos_as_xyz
  1  'x, y, z'
loop_
 _atom_site_type_symbol
 _atom_site_label
 _atom_site_symmetry_multiplicity
 _atom_site_fract_x
 _atom_site_fract_y
 _atom_site_fract_z
 _atom_site_occupancy
  Hf  Hf1  1  0.149793  0.750000  0.700414  1.0
  Hf  Hf2  1  0.850207  0.250000  0.299586  1.0
  Be  Be3  1  0.438329  0.750000  0.123343  1.0
  Be  Be4  1  0.561671  0.250000  0.876657  1.0
