# generated using pymatgen
data_SmTlTe2
_symmetry_space_group_name_H-M   'P 1'
_cell_length_a   4.53164952
_cell_length_b   4.53164937
_cell_length_c   8.62517397
_cell_angle_alpha   74.76972757
_cell_angle_beta   74.76972536
_cell_angle_gamma   60.00000116
_symmetry_Int_Tables_number   1
_chemical_formula_structural   SmTlTe2
_chemical_formula_sum   'Sm1 Tl1 Te2'
_cell_volume   146.16742638
_cell_formula_units_Z   1
loop_
 _symmetry_equiv_pos_site_id
 _symmetry_equiv_pos_as_xyz
  1  'x, y, z'
loop_
 _atom_site_type_symbol
 _atom_site_label
 _atom_site_symmetry_multiplicity
 _atom_site_fract_x
 _atom_site_fract_y
 _atom_site_fract_z
 _atom_site_occupancy
  Sm  Sm1  1  0.000000  0.000000  0.000000  1.0
  Tl  Tl2  1  0.500000  0.500000  0.500000  1.0
  Te  Te3  1  0.738836  0.738836  0.783493  1.0
  Te  Te4  1  0.261164  0.261164  0.216507  1.0
