# generated using pymatgen
data_HgI
_symmetry_space_group_name_H-M   'P 1'
_cell_length_a   5.19053104
_cell_length_b   5.19053105
_cell_length_c   6.95197778
_cell_angle_alpha   111.92010064
_cell_angle_beta   111.92010064
_cell_angle_gamma   89.99999998
_symmetry_Int_Tables_number   1
_chemical_formula_structural   HgI
_chemical_formula_sum   'Hg2 I2'
_cell_volume   159.06778145
_cell_formula_units_Z   2
loop_
 _symmetry_equiv_pos_site_id
 _symmetry_equiv_pos_as_xyz
  1  'x, y, z'
loop_
 _atom_site_type_symbol
 _atom_site_label
 _atom_site_symmetry_multiplicity
 _atom_site_fract_x
 _atom_site_fract_y
 _atom_site_fract_z
 _atom_site_occupancy
  Hg  Hg1  1  0.887046  0.887046  0.774091  1.0
  Hg  Hg2  1  0.112954  0.112954  0.225909  1.0
  I  I3  1  0.652519  0.652519  0.305038  1.0
  I  I4  1  0.347481  0.347481  0.694962  1.0
