# generated using pymatgen
data_CeAu
_symmetry_space_group_name_H-M   'P 1'
_cell_length_a   3.88374208
_cell_length_b   4.72114462
_cell_length_c   6.04851578
_cell_angle_alpha   90.00000000
_cell_angle_beta   71.27361321
_cell_angle_gamma   90.00000000
_symmetry_Int_Tables_number   1
_chemical_formula_structural   CeAu
_chemical_formula_sum   'Ce2 Au2'
_cell_volume   105.03285099
_cell_formula_units_Z   2
loop_
 _symmetry_equiv_pos_site_id
 _symmetry_equiv_pos_as_xyz
  1  'x, y, z'
loop_
 _atom_site_type_symbol
 _atom_site_label
 _atom_site_symmetry_multiplicity
 _atom_site_fract_x
 _atom_site_fract_y
 _atom_site_fract_z
 _atom_site_occupancy
  Ce  Ce1  1  0.140175  0.750000  0.719650  1.0
  Ce  Ce2  1  0.859825  0.250000  0.280350  1.0
  Au  Au3  1  0.415419  0.750000  0.169162  1.0
  Au  Au4  1  0.584581  0.250000  0.830838  1.0
