# generated using pymatgen
data_NaSmS2
_symmetry_space_group_name_H-M   'P 1'
_cell_length_a   4.07451655
_cell_length_b   4.07451658
_cell_length_c   7.10829233
_cell_angle_alpha   73.34530533
_cell_angle_beta   73.34530786
_cell_angle_gamma   59.99999974
_symmetry_Int_Tables_number   1
_chemical_formula_structural   NaSmS2
_chemical_formula_sum   'Na1 Sm1 S2'
_cell_volume   96.44056563
_cell_formula_units_Z   1
loop_
 _symmetry_equiv_pos_site_id
 _symmetry_equiv_pos_as_xyz
  1  'x, y, z'
loop_
 _atom_site_type_symbol
 _atom_site_label
 _atom_site_symmetry_multiplicity
 _atom_site_fract_x
 _atom_site_fract_y
 _atom_site_fract_z
 _atom_site_occupancy
  Na  Na1  1  0.500000  0.500000  0.500000  1.0
  Sm  Sm2  1  0.000000  0.000000  0.000000  1.0
  S  S3  1  0.743415  0.743415  0.769754  1.0
  S  S4  1  0.256585  0.256585  0.230246  1.0
