# generated using pymatgen
data_Tc3N
_symmetry_space_group_name_H-M   'P 1'
_cell_length_a   2.82078976
_cell_length_b   2.82035070
_cell_length_c   7.09919969
_cell_angle_alpha   90.00000000
_cell_angle_beta   90.00000000
_cell_angle_gamma   120.00514989
_symmetry_Int_Tables_number   1
_chemical_formula_structural   Tc3N
_chemical_formula_sum   'Tc3 N1'
_cell_volume   48.90928541
_cell_formula_units_Z   1
loop_
 _symmetry_equiv_pos_site_id
 _symmetry_equiv_pos_as_xyz
  1  'x, y, z'
loop_
 _atom_site_type_symbol
 _atom_site_label
 _atom_site_symmetry_multiplicity
 _atom_site_fract_x
 _atom_site_fract_y
 _atom_site_fract_z
 _atom_site_occupancy
  Tc  Tc1  1  0.666769  0.333537  0.500000  1.0
  Tc  Tc2  1  0.333274  0.666548  0.803722  1.0
  Tc  Tc3  1  0.333274  0.666548  0.196278  1.0
  N  N4  1  0.666684  0.333368  0.000000  1.0
