# generated using pymatgen
data_MnTe
_symmetry_space_group_name_H-M   'P 1'
_cell_length_a   4.21987995
_cell_length_b   4.21987995
_cell_length_c   5.94606782
_cell_angle_alpha   90.00000000
_cell_angle_beta   90.00000000
_cell_angle_gamma   119.99476803
_symmetry_Int_Tables_number   1
_chemical_formula_structural   MnTe
_chemical_formula_sum   'Mn2 Te2'
_cell_volume   91.70300687
_cell_formula_units_Z   2
loop_
 _symmetry_equiv_pos_site_id
 _symmetry_equiv_pos_as_xyz
  1  'x, y, z'
loop_
 _atom_site_type_symbol
 _atom_site_label
 _atom_site_symmetry_multiplicity
 _atom_site_fract_x
 _atom_site_fract_y
 _atom_site_fract_z
 _atom_site_occupancy
  Mn  Mn1  1  0.000000  0.000000  0.500000  1.0
  Mn  Mn2  1  0.000000  0.000000  0.000000  1.0
  Te  Te3  1  0.666777  0.333223  0.750000  1.0
  Te  Te4  1  0.333223  0.666777  0.250000  1.0
