# generated using pymatgen
data_HfPt
_symmetry_space_group_name_H-M   'P 1'
_cell_length_a   3.38227527
_cell_length_b   4.31572443
_cell_length_c   5.45571674
_cell_angle_alpha   90.00000000
_cell_angle_beta   71.94225577
_cell_angle_gamma   90.00000000
_symmetry_Int_Tables_number   1
_chemical_formula_structural   HfPt
_chemical_formula_sum   'Hf2 Pt2'
_cell_volume   75.71437407
_cell_formula_units_Z   2
loop_
 _symmetry_equiv_pos_site_id
 _symmetry_equiv_pos_as_xyz
  1  'x, y, z'
loop_
 _atom_site_type_symbol
 _atom_site_label
 _atom_site_symmetry_multiplicity
 _atom_site_fract_x
 _atom_site_fract_y
 _atom_site_fract_z
 _atom_site_occupancy
  Hf  Hf1  1  0.142653  0.750000  0.714694  1.0
  Hf  Hf2  1  0.857347  0.250000  0.285306  1.0
  Pt  Pt3  1  0.407217  0.750000  0.185566  1.0
  Pt  Pt4  1  0.592783  0.250000  0.814434  1.0
