# generated using pymatgen
data_Al2O3
_symmetry_space_group_name_H-M   'P 1'
_cell_length_a   5.65803662
_cell_length_b   5.65688228
_cell_length_c   23.68041480
_cell_angle_alpha   90.83854824
_cell_angle_beta   90.02449885
_cell_angle_gamma   90.00841491
_symmetry_Int_Tables_number   1
_chemical_formula_structural   Al2O3
_chemical_formula_sum   'Al32 O48'
_cell_volume   757.85416567
_cell_formula_units_Z   16
loop_
 _symmetry_equiv_pos_site_id
 _symmetry_equiv_pos_as_xyz
  1  'x, y, z'
loop_
 _atom_site_type_symbol
 _atom_site_label
 _atom_site_symmetry_multiplicity
 _atom_site_fract_x
 _atom_site_fract_y
 _atom_site_fract_z
 _atom_site_occupancy
  Al  Al1  1  0.002745  0.517064  0.251302  1.0
  Al  Al2  1  0.985143  0.995525  0.001113  1.0
  Al  Al3  1  0.015480  0.256192  0.121496  1.0
  Al  Al4  1  0.015754  0.749842  0.122408  1.0
  Al  Al5  1  0.003142  0.982173  0.333390  1.0
  Al  Al6  1  0.016394  0.243073  0.462334  1.0
  Al  Al7  1  0.016511  0.749975  0.461552  1.0
  Al  Al8  1  0.999651  0.999943  0.665719  1.0
  Al  Al9  1  0.984713  0.504573  0.582055  1.0
  Al  Al10  1  0.995748  0.250251  0.790833  1.0
  Al  Al11  1  0.000184  0.500911  0.916238  1.0
  Al  Al12  1  0.241794  0.519663  0.711890  1.0
  Al  Al13  1  0.242331  0.981072  0.869939  1.0
  Al  Al14  1  0.256950  0.019076  0.213494  1.0
  Al  Al15  1  0.257573  0.480232  0.371134  1.0
  Al  Al16  1  0.513494  0.004625  0.082570  1.0
  Al  Al17  1  0.499035  0.999742  0.417165  1.0
  Al  Al18  1  0.496547  0.017635  0.749726  1.0
  Al  Al19  1  0.483043  0.250425  0.961248  1.0
  Al  Al20  1  0.482073  0.249947  0.621077  1.0
  Al  Al21  1  0.513996  0.495279  0.500566  1.0
  Al  Al22  1  0.496669  0.482824  0.832032  1.0
  Al  Al23  1  0.503704  0.749889  0.292419  1.0
  Al  Al24  1  0.498903  0.499224  0.167452  1.0
  Al  Al25  1  0.483257  0.743956  0.962220  1.0
  Al  Al26  1  0.482274  0.756856  0.620205  1.0
  Al  Al27  1  0.749406  0.481311  0.372029  1.0
  Al  Al28  1  0.749571  0.999970  0.541298  1.0
  Al  Al29  1  0.749497  0.499988  0.041862  1.0
  Al  Al30  1  0.749073  0.017811  0.212579  1.0
  Al  Al31  1  0.750029  0.982393  0.870977  1.0
  Al  Al32  1  0.749483  0.518273  0.710911  1.0
  O  O33  1  0.979419  0.252458  0.044465  1.0
  O  O34  1  0.980488  0.744900  0.044786  1.0
  O  O35  1  0.001953  0.241948  0.207910  1.0
  O  O36  1  0.001853  0.777761  0.204848  1.0
  O  O37  1  0.979221  0.247120  0.538957  1.0
  O  O38  1  0.980460  0.755787  0.538711  1.0
  O  O39  1  0.995707  0.271013  0.709027  1.0
  O  O40  1  0.995578  0.730695  0.702808  1.0
  O  O41  1  0.996150  0.229979  0.872793  1.0
  O  O42  1  0.996081  0.770179  0.879171  1.0
  O  O43  1  0.002591  0.257306  0.376695  1.0
  O  O44  1  0.002780  0.721479  0.379557  1.0
  O  O45  1  0.226936  0.502703  0.131069  1.0
  O  O46  1  0.257956  0.997342  0.956840  1.0
  O  O47  1  0.243041  0.480273  0.788631  1.0
  O  O48  1  0.242722  0.020392  0.793313  1.0
  O  O49  1  0.240802  0.496934  0.457060  1.0
  O  O50  1  0.227485  0.996703  0.453301  1.0
  O  O51  1  0.241037  0.002958  0.126754  1.0
  O  O52  1  0.257003  0.519478  0.294616  1.0
  O  O53  1  0.271914  0.497454  0.952494  1.0
  O  O54  1  0.257873  0.503186  0.625621  1.0
  O  O55  1  0.270825  0.003133  0.629319  1.0
  O  O56  1  0.256816  0.979880  0.290193  1.0
  O  O57  1  0.518501  0.255475  0.038632  1.0
  O  O58  1  0.503414  0.269190  0.380430  1.0
  O  O59  1  0.496483  0.277852  0.703340  1.0
  O  O60  1  0.497122  0.222302  0.878720  1.0
  O  O61  1  0.518129  0.244065  0.543793  1.0
  O  O62  1  0.503392  0.728704  0.374090  1.0
  O  O63  1  0.496509  0.742838  0.706308  1.0
  O  O64  1  0.503102  0.230300  0.204548  1.0
  O  O65  1  0.519537  0.747225  0.039033  1.0
  O  O66  1  0.497162  0.757965  0.875645  1.0
  O  O67  1  0.519309  0.753010  0.543478  1.0
  O  O68  1  0.503163  0.770371  0.210686  1.0
  O  O69  1  0.748897  0.980001  0.290116  1.0
  O  O70  1  0.729961  0.003610  0.622854  1.0
  O  O71  1  0.722983  0.503918  0.628404  1.0
  O  O72  1  0.731504  0.496931  0.959687  1.0
  O  O73  1  0.748669  0.519250  0.294799  1.0
  O  O74  1  0.774429  0.003677  0.129591  1.0
  O  O75  1  0.769029  0.996176  0.459769  1.0
  O  O76  1  0.775932  0.496296  0.454283  1.0
  O  O77  1  0.750410  0.020293  0.793496  1.0
  O  O78  1  0.750273  0.480574  0.788468  1.0
  O  O79  1  0.724067  0.996538  0.953921  1.0
  O  O80  1  0.767532  0.503099  0.123882  1.0
