# generated using pymatgen
data_CuAgO2
_symmetry_space_group_name_H-M   'P 1'
_cell_length_a   2.83093599
_cell_length_b   6.02654391
_cell_length_c   6.57143834
_cell_angle_alpha   113.19619514
_cell_angle_beta   90.00000000
_cell_angle_gamma   90.00000000
_symmetry_Int_Tables_number   1
_chemical_formula_structural   CuAgO2
_chemical_formula_sum   'Cu2 Ag2 O4'
_cell_volume   103.05062648
_cell_formula_units_Z   2
loop_
 _symmetry_equiv_pos_site_id
 _symmetry_equiv_pos_as_xyz
  1  'x, y, z'
loop_
 _atom_site_type_symbol
 _atom_site_label
 _atom_site_symmetry_multiplicity
 _atom_site_fract_x
 _atom_site_fract_y
 _atom_site_fract_z
 _atom_site_occupancy
  Cu  Cu1  1  0.000000  0.500000  0.500000  1.0
  Cu  Cu2  1  0.500000  0.500000  0.000000  1.0
  Ag  Ag3  1  0.500000  0.000000  0.500000  1.0
  Ag  Ag4  1  0.000000  0.000000  0.000000  1.0
  O  O5  1  0.000007  0.716228  0.124551  1.0
  O  O6  1  0.500007  0.283772  0.375449  1.0
  O  O7  1  0.499993  0.716228  0.624551  1.0
  O  O8  1  0.999993  0.283772  0.875449  1.0
