# generated using pymatgen
data_TiMo
_symmetry_space_group_name_H-M   'P 1'
_cell_length_a   2.65624560
_cell_length_b   5.23264835
_cell_length_c   5.80620401
_cell_angle_alpha   116.78272367
_cell_angle_beta   103.22302466
_cell_angle_gamma   90.00000000
_symmetry_Int_Tables_number   1
_chemical_formula_structural   TiMo
_chemical_formula_sum   'Ti2 Mo2'
_cell_volume   69.63892914
_cell_formula_units_Z   2
loop_
 _symmetry_equiv_pos_site_id
 _symmetry_equiv_pos_as_xyz
  1  'x, y, z'
loop_
 _atom_site_type_symbol
 _atom_site_label
 _atom_site_symmetry_multiplicity
 _atom_site_fract_x
 _atom_site_fract_y
 _atom_site_fract_z
 _atom_site_occupancy
  Ti  Ti1  1  0.630717  0.880717  0.761435  1.0
  Ti  Ti2  1  0.369283  0.119283  0.238565  1.0
  Mo  Mo3  1  0.627802  0.377802  0.755605  1.0
  Mo  Mo4  1  0.372198  0.622198  0.244395  1.0
