# generated using pymatgen
data_LiSnS2
_symmetry_space_group_name_H-M   'P 1'
_cell_length_a   3.80205215
_cell_length_b   3.80205215
_cell_length_c   6.67641806
_cell_angle_alpha   73.45684628
_cell_angle_beta   73.45684628
_cell_angle_gamma   60.00000026
_symmetry_Int_Tables_number   1
_chemical_formula_structural   LiSnS2
_chemical_formula_sum   'Li1 Sn1 S2'
_cell_volume   78.93475169
_cell_formula_units_Z   1
loop_
 _symmetry_equiv_pos_site_id
 _symmetry_equiv_pos_as_xyz
  1  'x, y, z'
loop_
 _atom_site_type_symbol
 _atom_site_label
 _atom_site_symmetry_multiplicity
 _atom_site_fract_x
 _atom_site_fract_y
 _atom_site_fract_z
 _atom_site_occupancy
  Li  Li1  1  0.500000  0.500000  0.500000  1.0
  Sn  Sn2  1  0.000000  0.000000  0.000000  1.0
  S  S3  1  0.246663  0.246663  0.260012  1.0
  S  S4  1  0.753337  0.753337  0.739988  1.0
