# generated using pymatgen
data_TbGe
_symmetry_space_group_name_H-M   'P 1'
_cell_length_a   4.33056637
_cell_length_b   5.81757090
_cell_length_c   3.97041761
_cell_angle_alpha   90.00000000
_cell_angle_beta   90.00000000
_cell_angle_gamma   111.85118381
_symmetry_Int_Tables_number   1
_chemical_formula_structural   TbGe
_chemical_formula_sum   'Tb2 Ge2'
_cell_volume   92.84156964
_cell_formula_units_Z   2
loop_
 _symmetry_equiv_pos_site_id
 _symmetry_equiv_pos_as_xyz
  1  'x, y, z'
loop_
 _atom_site_type_symbol
 _atom_site_label
 _atom_site_symmetry_multiplicity
 _atom_site_fract_x
 _atom_site_fract_y
 _atom_site_fract_z
 _atom_site_occupancy
  Tb  Tb1  1  0.137810  0.275620  0.750000  1.0
  Tb  Tb2  1  0.862190  0.724380  0.250000  1.0
  Ge  Ge3  1  0.585359  0.170718  0.250000  1.0
  Ge  Ge4  1  0.414641  0.829282  0.750000  1.0
