# generated using pymatgen
data_B2CN
_symmetry_space_group_name_H-M   'P 1'
_cell_length_a   4.64056645
_cell_length_b   4.64056613
_cell_length_c   4.64056599
_cell_angle_alpha   32.34111016
_cell_angle_beta   32.34111638
_cell_angle_gamma   32.34111404
_symmetry_Int_Tables_number   1
_chemical_formula_structural   B2CN
_chemical_formula_sum   'B2 C1 N1'
_cell_volume   25.42390585
_cell_formula_units_Z   1
loop_
 _symmetry_equiv_pos_site_id
 _symmetry_equiv_pos_as_xyz
  1  'x, y, z'
loop_
 _atom_site_type_symbol
 _atom_site_label
 _atom_site_symmetry_multiplicity
 _atom_site_fract_x
 _atom_site_fract_y
 _atom_site_fract_z
 _atom_site_occupancy
  B  B1  1  0.223358  0.223358  0.223358  1.0
  B  B2  1  0.732349  0.732349  0.732349  1.0
  C  C3  1  0.344915  0.344915  0.344915  1.0
  N  N4  1  0.847877  0.847877  0.847877  1.0
