# generated using pymatgen
data_CrCuO2
_symmetry_space_group_name_H-M   'P 1'
_cell_length_a   3.05812440
_cell_length_b   3.05812440
_cell_length_c   5.97884705
_cell_angle_alpha   75.18224677
_cell_angle_beta   75.18224677
_cell_angle_gamma   60.00001944
_symmetry_Int_Tables_number   1
_chemical_formula_structural   CrCuO2
_chemical_formula_sum   'Cr1 Cu1 O2'
_cell_volume   46.26413749
_cell_formula_units_Z   1
loop_
 _symmetry_equiv_pos_site_id
 _symmetry_equiv_pos_as_xyz
  1  'x, y, z'
loop_
 _atom_site_type_symbol
 _atom_site_label
 _atom_site_symmetry_multiplicity
 _atom_site_fract_x
 _atom_site_fract_y
 _atom_site_fract_z
 _atom_site_occupancy
  Cr  Cr1  1  0.500000  0.500000  0.500000  1.0
  Cu  Cu2  1  0.000000  0.000000  0.000000  1.0
  O  O3  1  0.108089  0.108089  0.675733  1.0
  O  O4  1  0.891911  0.891911  0.324267  1.0
