# generated using pymatgen
data_NbC
_symmetry_space_group_name_H-M   'P 1'
_cell_length_a   3.71242225
_cell_length_b   3.71242225
_cell_length_c   4.47033955
_cell_angle_alpha   90.00000000
_cell_angle_beta   90.00000000
_cell_angle_gamma   119.93550263
_symmetry_Int_Tables_number   1
_chemical_formula_structural   NbC
_chemical_formula_sum   'Nb2 C2'
_cell_volume   53.39096451
_cell_formula_units_Z   2
loop_
 _symmetry_equiv_pos_site_id
 _symmetry_equiv_pos_as_xyz
  1  'x, y, z'
loop_
 _atom_site_type_symbol
 _atom_site_label
 _atom_site_symmetry_multiplicity
 _atom_site_fract_x
 _atom_site_fract_y
 _atom_site_fract_z
 _atom_site_occupancy
  Nb  Nb1  1  0.332982  0.667018  0.562486  1.0
  Nb  Nb2  1  0.667018  0.332982  0.062486  1.0
  C  C3  1  0.333370  0.666630  0.062514  1.0
  C  C4  1  0.666630  0.333370  0.562514  1.0
