# generated using pymatgen
data_HW
_symmetry_space_group_name_H-M   'P 1'
_cell_length_a   2.94898074
_cell_length_b   2.94893608
_cell_length_c   4.76520390
_cell_angle_alpha   90.00000000
_cell_angle_beta   90.00000000
_cell_angle_gamma   120.00050095
_symmetry_Int_Tables_number   1
_chemical_formula_structural   HW
_chemical_formula_sum   'H2 W2'
_cell_volume   35.88783200
_cell_formula_units_Z   2
loop_
 _symmetry_equiv_pos_site_id
 _symmetry_equiv_pos_as_xyz
  1  'x, y, z'
loop_
 _atom_site_type_symbol
 _atom_site_label
 _atom_site_symmetry_multiplicity
 _atom_site_fract_x
 _atom_site_fract_y
 _atom_site_fract_z
 _atom_site_occupancy
  H  H1  1  0.000000  0.000000  0.000000  1.0
  H  H2  1  0.000000  0.000000  0.500000  1.0
  W  W3  1  0.666672  0.333344  0.250000  1.0
  W  W4  1  0.333328  0.666656  0.750000  1.0
