# generated using pymatgen
data_KTiS2
_symmetry_space_group_name_H-M   'P 1'
_cell_length_a   3.65006468
_cell_length_b   3.65006506
_cell_length_c   7.66707945
_cell_angle_alpha   76.22941215
_cell_angle_beta   76.22941472
_cell_angle_gamma   59.99999657
_symmetry_Int_Tables_number   1
_chemical_formula_structural   KTiS2
_chemical_formula_sum   'K1 Ti1 S2'
_cell_volume   85.05582345
_cell_formula_units_Z   1
loop_
 _symmetry_equiv_pos_site_id
 _symmetry_equiv_pos_as_xyz
  1  'x, y, z'
loop_
 _atom_site_type_symbol
 _atom_site_label
 _atom_site_symmetry_multiplicity
 _atom_site_fract_x
 _atom_site_fract_y
 _atom_site_fract_z
 _atom_site_occupancy
  K  K1  1  0.818331  0.818331  0.545007  1.0
  Ti  Ti2  1  0.986801  0.986801  0.039596  1.0
  S  S3  1  0.382188  0.382188  0.853435  1.0
  S  S4  1  0.590679  0.590679  0.227963  1.0
