# generated using pymatgen
data_ZrNi
_symmetry_space_group_name_H-M   'P 1'
_cell_length_a   3.30568916
_cell_length_b   4.08555919
_cell_length_c   5.25112111
_cell_angle_alpha   90.00000000
_cell_angle_beta   108.34634517
_cell_angle_gamma   90.00000000
_symmetry_Int_Tables_number   1
_chemical_formula_structural   ZrNi
_chemical_formula_sum   'Zr2 Ni2'
_cell_volume   67.31472892
_cell_formula_units_Z   2
loop_
 _symmetry_equiv_pos_site_id
 _symmetry_equiv_pos_as_xyz
  1  'x, y, z'
loop_
 _atom_site_type_symbol
 _atom_site_label
 _atom_site_symmetry_multiplicity
 _atom_site_fract_x
 _atom_site_fract_y
 _atom_site_fract_z
 _atom_site_occupancy
  Zr  Zr1  1  0.639434  0.250000  0.278868  1.0
  Zr  Zr2  1  0.360566  0.750000  0.721132  1.0
  Ni  Ni3  1  0.917254  0.250000  0.834508  1.0
  Ni  Ni4  1  0.082746  0.750000  0.165492  1.0
