# generated using pymatgen
data_HoAu
_symmetry_space_group_name_H-M   'P 1'
_cell_length_a   3.69278012
_cell_length_b   4.67860917
_cell_length_c   5.79054210
_cell_angle_alpha   90.00000000
_cell_angle_beta   108.59418242
_cell_angle_gamma   90.00000000
_symmetry_Int_Tables_number   1
_chemical_formula_structural   HoAu
_chemical_formula_sum   'Ho2 Au2'
_cell_volume   94.82143142
_cell_formula_units_Z   2
loop_
 _symmetry_equiv_pos_site_id
 _symmetry_equiv_pos_as_xyz
  1  'x, y, z'
loop_
 _atom_site_type_symbol
 _atom_site_label
 _atom_site_symmetry_multiplicity
 _atom_site_fract_x
 _atom_site_fract_y
 _atom_site_fract_z
 _atom_site_occupancy
  Ho  Ho1  1  0.860719  0.750000  0.721439  1.0
  Ho  Ho2  1  0.139281  0.250000  0.278561  1.0
  Au  Au3  1  0.587536  0.750000  0.175071  1.0
  Au  Au4  1  0.412464  0.250000  0.824929  1.0
