# generated using pymatgen
data_BC2N
_symmetry_space_group_name_H-M   'P 1'
_cell_length_a   2.53744465
_cell_length_b   2.56513941
_cell_length_c   3.64474946
_cell_angle_alpha   90.00198203
_cell_angle_beta   89.99855787
_cell_angle_gamma   90.00009099
_symmetry_Int_Tables_number   1
_chemical_formula_structural   BC2N
_chemical_formula_sum   'B1 C2 N1'
_cell_volume   23.72330709
_cell_formula_units_Z   1
loop_
 _symmetry_equiv_pos_site_id
 _symmetry_equiv_pos_as_xyz
  1  'x, y, z'
loop_
 _atom_site_type_symbol
 _atom_site_label
 _atom_site_symmetry_multiplicity
 _atom_site_fract_x
 _atom_site_fract_y
 _atom_site_fract_z
 _atom_site_occupancy
  B  B1  1  0.499991  0.999952  0.251703  1.0
  C  C2  1  0.499999  0.500020  0.509744  1.0
  C  C3  1  0.000036  0.500031  0.743423  1.0
  N  N4  1  0.999974  0.999997  0.995130  1.0
