# generated using pymatgen
data_NaSnS2
_symmetry_space_group_name_H-M   'P 1'
_cell_length_a   3.90671678
_cell_length_b   3.90671678
_cell_length_c   7.21405177
_cell_angle_alpha   74.28982806
_cell_angle_beta   74.28982806
_cell_angle_gamma   60.00000508
_symmetry_Int_Tables_number   1
_chemical_formula_structural   NaSnS2
_chemical_formula_sum   'Na1 Sn1 S2'
_cell_volume   90.57236839
_cell_formula_units_Z   1
loop_
 _symmetry_equiv_pos_site_id
 _symmetry_equiv_pos_as_xyz
  1  'x, y, z'
loop_
 _atom_site_type_symbol
 _atom_site_label
 _atom_site_symmetry_multiplicity
 _atom_site_fract_x
 _atom_site_fract_y
 _atom_site_fract_z
 _atom_site_occupancy
  Na  Na1  1  0.500000  0.500000  0.500000  1.0
  Sn  Sn2  1  0.000000  0.000000  0.000000  1.0
  S  S3  1  0.256782  0.256782  0.229654  1.0
  S  S4  1  0.743218  0.743218  0.770346  1.0
