# generated using pymatgen
data_LiBe
_symmetry_space_group_name_H-M   'P 1'
_cell_length_a   2.25877825
_cell_length_b   3.72096735
_cell_length_c   5.45480514
_cell_angle_alpha   90.00000000
_cell_angle_beta   103.40495392
_cell_angle_gamma   90.00000000
_symmetry_Int_Tables_number   1
_chemical_formula_structural   LiBe
_chemical_formula_sum   'Li2 Be2'
_cell_volume   44.59770835
_cell_formula_units_Z   2
loop_
 _symmetry_equiv_pos_site_id
 _symmetry_equiv_pos_as_xyz
  1  'x, y, z'
loop_
 _atom_site_type_symbol
 _atom_site_label
 _atom_site_symmetry_multiplicity
 _atom_site_fract_x
 _atom_site_fract_y
 _atom_site_fract_z
 _atom_site_occupancy
  Li  Li1  1  0.490447  0.250000  0.149587  1.0
  Li  Li2  1  0.509553  0.750000  0.850413  1.0
  Be  Be3  1  0.806715  0.250000  0.583723  1.0
  Be  Be4  1  0.193285  0.750000  0.416277  1.0
