# generated using pymatgen
data_Li6IrN4
_symmetry_space_group_name_H-M   'P 1'
_cell_length_a   6.74537100
_cell_length_b   6.74537100
_cell_length_c   4.87732400
_cell_angle_alpha   90.00000000
_cell_angle_beta   90.00000000
_cell_angle_gamma   90.00000000
_symmetry_Int_Tables_number   1
_chemical_formula_structural   Li6IrN4
_chemical_formula_sum   'Li12 Ir2 N8'
_cell_volume   221.91838797
_cell_formula_units_Z   2
loop_
 _symmetry_equiv_pos_site_id
 _symmetry_equiv_pos_as_xyz
  1  'x, y, z'
loop_
 _atom_site_type_symbol
 _atom_site_label
 _atom_site_symmetry_multiplicity
 _atom_site_fract_x
 _atom_site_fract_y
 _atom_site_fract_z
 _atom_site_occupancy
  Li  Li1  1  0.500000  0.000000  0.600959  1.0
  Li  Li2  1  0.000000  0.500000  0.899041  1.0
  Li  Li3  1  0.000000  0.500000  0.399041  1.0
  Li  Li4  1  0.500000  0.000000  0.100959  1.0
  Li  Li5  1  0.212414  0.212414  0.500000  1.0
  Li  Li6  1  0.787586  0.787586  0.500000  1.0
  Li  Li7  1  0.712414  0.712414  0.000000  1.0
  Li  Li8  1  0.287586  0.287586  0.000000  1.0
  Li  Li9  1  0.212414  0.787586  0.500000  1.0
  Li  Li10  1  0.787586  0.212414  0.500000  1.0
  Li  Li11  1  0.712414  0.287586  0.000000  1.0
  Li  Li12  1  0.287586  0.712414  0.000000  1.0
  Ir  Ir13  1  0.500000  0.500000  0.500000  1.0
  Ir  Ir14  1  0.000000  0.000000  0.000000  1.0
  N  N15  1  0.500000  0.248122  0.317819  1.0
  N  N16  1  0.500000  0.751878  0.317819  1.0
  N  N17  1  0.000000  0.748122  0.182181  1.0
  N  N18  1  0.000000  0.251878  0.182181  1.0
  N  N19  1  0.248122  0.500000  0.682181  1.0
  N  N20  1  0.751878  0.500000  0.682181  1.0
  N  N21  1  0.748122  0.000000  0.817819  1.0
  N  N22  1  0.251878  0.000000  0.817819  1.0
