# generated using pymatgen
data_AgO
_symmetry_space_group_name_H-M   'P 1'
_cell_length_a   3.29851265
_cell_length_b   3.29851230
_cell_length_c   5.60909889
_cell_angle_alpha   89.53511038
_cell_angle_beta   89.53512293
_cell_angle_gamma   86.62155789
_symmetry_Int_Tables_number   1
_chemical_formula_structural   AgO
_chemical_formula_sum   'Ag2 O2'
_cell_volume   60.91818122
_cell_formula_units_Z   2
loop_
 _symmetry_equiv_pos_site_id
 _symmetry_equiv_pos_as_xyz
  1  'x, y, z'
loop_
 _atom_site_type_symbol
 _atom_site_label
 _atom_site_symmetry_multiplicity
 _atom_site_fract_x
 _atom_site_fract_y
 _atom_site_fract_z
 _atom_site_occupancy
  Ag  Ag1  1  0.000000  0.500000  0.500000  1.0
  Ag  Ag2  1  0.500000  0.000000  0.000000  1.0
  O  O3  1  0.998065  0.001935  0.250000  1.0
  O  O4  1  0.001935  0.998065  0.750000  1.0
