# generated using pymatgen
data_AgN
_symmetry_space_group_name_H-M   'P 1'
_cell_length_a   3.19932921
_cell_length_b   3.19928963
_cell_length_c   5.62405833
_cell_angle_alpha   90.00000000
_cell_angle_beta   90.00000000
_cell_angle_gamma   120.00040939
_symmetry_Int_Tables_number   1
_chemical_formula_structural   AgN
_chemical_formula_sum   'Ag2 N2'
_cell_volume   49.85298255
_cell_formula_units_Z   2
loop_
 _symmetry_equiv_pos_site_id
 _symmetry_equiv_pos_as_xyz
  1  'x, y, z'
loop_
 _atom_site_type_symbol
 _atom_site_label
 _atom_site_symmetry_multiplicity
 _atom_site_fract_x
 _atom_site_fract_y
 _atom_site_fract_z
 _atom_site_occupancy
  Ag  Ag1  1  0.000000  0.000000  0.500000  1.0
  Ag  Ag2  1  0.000000  0.000000  0.000000  1.0
  N  N3  1  0.333302  0.666605  0.250000  1.0
  N  N4  1  0.666698  0.333395  0.750000  1.0
