# generated using pymatgen
data_TcB
_symmetry_space_group_name_H-M   'P 1'
_cell_length_a   2.87549534
_cell_length_b   2.87549534
_cell_length_c   5.94585686
_cell_angle_alpha   90.00000000
_cell_angle_beta   90.00000000
_cell_angle_gamma   120.00293354
_symmetry_Int_Tables_number   1
_chemical_formula_structural   TcB
_chemical_formula_sum   'Tc2 B2'
_cell_volume   42.57528650
_cell_formula_units_Z   2
loop_
 _symmetry_equiv_pos_site_id
 _symmetry_equiv_pos_as_xyz
  1  'x, y, z'
loop_
 _atom_site_type_symbol
 _atom_site_label
 _atom_site_symmetry_multiplicity
 _atom_site_fract_x
 _atom_site_fract_y
 _atom_site_fract_z
 _atom_site_occupancy
  Tc  Tc1  1  0.000000  0.000000  0.500000  1.0
  Tc  Tc2  1  0.000000  0.000000  0.000000  1.0
  B  B3  1  0.666695  0.333305  0.750000  1.0
  B  B4  1  0.333305  0.666695  0.250000  1.0
