# generated using pymatgen
data_NiAgSe2
_symmetry_space_group_name_H-M   'P 1'
_cell_length_a   3.64129832
_cell_length_b   3.64129791
_cell_length_c   7.23260340
_cell_angle_alpha   75.42020870
_cell_angle_beta   75.42020596
_cell_angle_gamma   60.00000361
_symmetry_Int_Tables_number   1
_chemical_formula_structural   NiAgSe2
_chemical_formula_sum   'Ni1 Ag1 Se2'
_cell_volume   79.46382608
_cell_formula_units_Z   1
loop_
 _symmetry_equiv_pos_site_id
 _symmetry_equiv_pos_as_xyz
  1  'x, y, z'
loop_
 _atom_site_type_symbol
 _atom_site_label
 _atom_site_symmetry_multiplicity
 _atom_site_fract_x
 _atom_site_fract_y
 _atom_site_fract_z
 _atom_site_occupancy
  Ni  Ni1  1  0.997141  0.997141  0.008578  1.0
  Ag  Ag2  1  0.148928  0.148928  0.553216  1.0
  Se  Se3  1  0.272319  0.272319  0.183042  1.0
  Se  Se4  1  0.725612  0.725612  0.823164  1.0
