# generated using pymatgen
data_NaSmSe2
_symmetry_space_group_name_H-M   'P 1'
_cell_length_a   4.23361540
_cell_length_b   4.23361518
_cell_length_c   7.39402502
_cell_angle_alpha   73.36425158
_cell_angle_beta   73.36425126
_cell_angle_gamma   60.00000172
_symmetry_Int_Tables_number   1
_chemical_formula_structural   NaSmSe2
_chemical_formula_sum   'Na1 Sm1 Se2'
_cell_volume   108.31908935
_cell_formula_units_Z   1
loop_
 _symmetry_equiv_pos_site_id
 _symmetry_equiv_pos_as_xyz
  1  'x, y, z'
loop_
 _atom_site_type_symbol
 _atom_site_label
 _atom_site_symmetry_multiplicity
 _atom_site_fract_x
 _atom_site_fract_y
 _atom_site_fract_z
 _atom_site_occupancy
  Na  Na1  1  0.000000  0.000000  0.000000  1.0
  Sm  Sm2  1  0.500000  0.500000  0.500000  1.0
  Se  Se3  1  0.755057  0.755057  0.734828  1.0
  Se  Se4  1  0.244943  0.244943  0.265172  1.0
