# generated using pymatgen
data_NaNdS2
_symmetry_space_group_name_H-M   'P 1'
_cell_length_a   4.13582098
_cell_length_b   4.13582098
_cell_length_c   7.09953893
_cell_angle_alpha   73.06576361
_cell_angle_beta   73.06576361
_cell_angle_gamma   60.00001346
_symmetry_Int_Tables_number   1
_chemical_formula_structural   NaNdS2
_chemical_formula_sum   'Na1 Nd1 S2'
_cell_volume   99.04135492
_cell_formula_units_Z   1
loop_
 _symmetry_equiv_pos_site_id
 _symmetry_equiv_pos_as_xyz
  1  'x, y, z'
loop_
 _atom_site_type_symbol
 _atom_site_label
 _atom_site_symmetry_multiplicity
 _atom_site_fract_x
 _atom_site_fract_y
 _atom_site_fract_z
 _atom_site_occupancy
  Na  Na1  1  0.500000  0.500000  0.500000  1.0
  Nd  Nd2  1  0.000000  0.000000  0.000000  1.0
  S  S3  1  0.255230  0.255230  0.234309  1.0
  S  S4  1  0.744770  0.744770  0.765691  1.0
