# generated using pymatgen
data_DyAu
_symmetry_space_group_name_H-M   'P 1'
_cell_length_a   3.71423723
_cell_length_b   4.69760266
_cell_length_c   5.80745012
_cell_angle_alpha   90.00000000
_cell_angle_beta   108.64974290
_cell_angle_gamma   90.00000000
_symmetry_Int_Tables_number   1
_chemical_formula_structural   DyAu
_chemical_formula_sum   'Dy2 Au2'
_cell_volume   96.00781026
_cell_formula_units_Z   2
loop_
 _symmetry_equiv_pos_site_id
 _symmetry_equiv_pos_as_xyz
  1  'x, y, z'
loop_
 _atom_site_type_symbol
 _atom_site_label
 _atom_site_symmetry_multiplicity
 _atom_site_fract_x
 _atom_site_fract_y
 _atom_site_fract_z
 _atom_site_occupancy
  Dy  Dy1  1  0.861008  0.750000  0.722017  1.0
  Dy  Dy2  1  0.138992  0.250000  0.277983  1.0
  Au  Au3  1  0.587629  0.750000  0.175258  1.0
  Au  Au4  1  0.412371  0.250000  0.824742  1.0
