# generated using pymatgen
data_Cu2OF2
_symmetry_space_group_name_H-M   'P 1'
_cell_length_a   5.69927003
_cell_length_b   6.08806796
_cell_length_c   5.74574314
_cell_angle_alpha   70.83222858
_cell_angle_beta   72.00844999
_cell_angle_gamma   108.66631146
_symmetry_Int_Tables_number   1
_chemical_formula_structural   Cu2OF2
_chemical_formula_sum   'Cu4 O2 F4'
_cell_volume   158.16903295
_cell_formula_units_Z   2
loop_
 _symmetry_equiv_pos_site_id
 _symmetry_equiv_pos_as_xyz
  1  'x, y, z'
loop_
 _atom_site_type_symbol
 _atom_site_label
 _atom_site_symmetry_multiplicity
 _atom_site_fract_x
 _atom_site_fract_y
 _atom_site_fract_z
 _atom_site_occupancy
  Cu  Cu1  1  0.500767  0.002011  0.996978  1.0
  Cu  Cu2  1  0.502839  0.002362  0.495722  1.0
  Cu  Cu3  1  0.502384  0.501136  0.496902  1.0
  Cu  Cu4  1  0.001665  0.500961  0.498952  1.0
  O  O5  1  0.626444  0.249564  0.623618  1.0
  O  O6  1  0.378401  0.753373  0.369204  1.0
  F  F7  1  0.631439  0.262922  0.110314  1.0
  F  F8  1  0.878350  0.763203  0.373821  1.0
  F  F9  1  0.123955  0.238244  0.626808  1.0
  F  F10  1  0.369514  0.743765  0.882064  1.0
