# generated using pymatgen
data_OsC
_symmetry_space_group_name_H-M   'P 1'
_cell_length_a   2.92899117
_cell_length_b   2.92845028
_cell_length_c   5.50542203
_cell_angle_alpha   90.00000000
_cell_angle_beta   90.00000000
_cell_angle_gamma   120.00610995
_symmetry_Int_Tables_number   1
_chemical_formula_structural   OsC
_chemical_formula_sum   'Os2 C2'
_cell_volume   40.89313662
_cell_formula_units_Z   2
loop_
 _symmetry_equiv_pos_site_id
 _symmetry_equiv_pos_as_xyz
  1  'x, y, z'
loop_
 _atom_site_type_symbol
 _atom_site_label
 _atom_site_symmetry_multiplicity
 _atom_site_fract_x
 _atom_site_fract_y
 _atom_site_fract_z
 _atom_site_occupancy
  Os  Os1  1  0.000000  0.000000  0.500000  1.0
  Os  Os2  1  0.000000  0.000000  0.000000  1.0
  C  C3  1  0.333353  0.666706  0.250000  1.0
  C  C4  1  0.666647  0.333294  0.750000  1.0
