# generated using pymatgen
data_P
_symmetry_space_group_name_H-M   'P 1'
_cell_length_a   3.30611024
_cell_length_b   4.55241784
_cell_length_c   5.84900648
_cell_angle_alpha   90.00000000
_cell_angle_beta   106.41672793
_cell_angle_gamma   90.00000000
_symmetry_Int_Tables_number   1
_chemical_formula_structural   P
_chemical_formula_sum   P4
_cell_volume   84.44325835
_cell_formula_units_Z   4
loop_
 _symmetry_equiv_pos_site_id
 _symmetry_equiv_pos_as_xyz
  1  'x, y, z'
loop_
 _atom_site_type_symbol
 _atom_site_label
 _atom_site_symmetry_multiplicity
 _atom_site_fract_x
 _atom_site_fract_y
 _atom_site_fract_z
 _atom_site_occupancy
  P  P1  1  0.405506  0.913483  0.811013  1.0
  P  P2  1  0.594494  0.086517  0.188987  1.0
  P  P3  1  0.094494  0.413483  0.188987  1.0
  P  P4  1  0.905506  0.586517  0.811013  1.0
