# generated using pymatgen
data_Ca3Al2O6
_symmetry_space_group_name_H-M   'P 1'
_cell_length_a   7.66958753
_cell_length_b   7.66572553
_cell_length_c   7.66810843
_cell_angle_alpha   90.00003183
_cell_angle_beta   90.00074697
_cell_angle_gamma   90.00034485
_symmetry_Int_Tables_number   1
_chemical_formula_structural   Ca3Al2O6
_chemical_formula_sum   'Ca9 Al6 O18'
_cell_volume   450.83073797
_cell_formula_units_Z   3
loop_
 _symmetry_equiv_pos_site_id
 _symmetry_equiv_pos_as_xyz
  1  'x, y, z'
loop_
 _atom_site_type_symbol
 _atom_site_label
 _atom_site_symmetry_multiplicity
 _atom_site_fract_x
 _atom_site_fract_y
 _atom_site_fract_z
 _atom_site_occupancy
  Ca  Ca1  1  0.292322  0.292165  0.707773  1.0
  Ca  Ca2  1  0.707680  0.707827  0.292269  1.0
  Ca  Ca3  1  0.292290  0.292138  0.292227  1.0
  Ca  Ca4  1  0.292340  0.707828  0.707761  1.0
  Ca  Ca5  1  0.999954  0.999973  0.999960  1.0
  Ca  Ca6  1  0.292305  0.707854  0.292240  1.0
  Ca  Ca7  1  0.707698  0.292160  0.292253  1.0
  Ca  Ca8  1  0.707678  0.292192  0.707745  1.0
  Ca  Ca9  1  0.707662  0.707802  0.707737  1.0
  Al  Al10  1  0.999981  0.499994  0.499985  1.0
  Al  Al11  1  0.499984  0.999998  0.499988  1.0
  Al  Al12  1  0.999987  0.999996  0.499992  1.0
  Al  Al13  1  0.499984  0.499991  0.999919  1.0
  Al  Al14  1  0.499993  0.999996  0.999984  1.0
  Al  Al15  1  0.999994  0.499998  0.999987  1.0
  O  O16  1  0.499991  0.499996  0.233233  1.0
  O  O17  1  0.499982  0.766810  0.499975  1.0
  O  O18  1  0.499978  0.000015  0.237277  1.0
  O  O19  1  0.000026  0.237308  0.499979  1.0
  O  O20  1  0.762779  0.499994  0.000022  1.0
  O  O21  1  0.237221  0.499988  0.000017  1.0
  O  O22  1  0.233165  0.499993  0.499982  1.0
  O  O23  1  0.499977  0.499993  0.767004  1.0
  O  O24  1  0.499982  0.000012  0.762736  1.0
  O  O25  1  0.000022  0.762696  0.499981  1.0
  O  O26  1  0.499984  0.237337  0.000023  1.0
  O  O27  1  0.000021  0.499990  0.237225  1.0
  O  O28  1  0.762757  0.000018  0.499986  1.0
  O  O29  1  0.767020  0.499986  0.499983  1.0
  O  O30  1  0.499979  0.233268  0.499982  1.0
  O  O31  1  0.499985  0.762675  0.000020  1.0
  O  O32  1  0.237256  0.000018  0.499975  1.0
  O  O33  1  0.000022  0.499990  0.762781  1.0
