# generated using pymatgen
data_Y(FeSi)2
_symmetry_space_group_name_H-M   'P 1'
_cell_length_a   3.96786852
_cell_length_b   3.96786778
_cell_length_c   5.52996771
_cell_angle_alpha   111.02410248
_cell_angle_beta   111.02409559
_cell_angle_gamma   90.00000364
_symmetry_Int_Tables_number   1
_chemical_formula_structural   Y(FeSi)2
_chemical_formula_sum   'Y1 Fe2 Si2'
_cell_volume   75.02554703
_cell_formula_units_Z   1
loop_
 _symmetry_equiv_pos_site_id
 _symmetry_equiv_pos_as_xyz
  1  'x, y, z'
loop_
 _atom_site_type_symbol
 _atom_site_label
 _atom_site_symmetry_multiplicity
 _atom_site_fract_x
 _atom_site_fract_y
 _atom_site_fract_z
 _atom_site_occupancy
  Y  Y1  1  0.000000  0.000000  0.000000  1.0
  Fe  Fe2  1  0.250000  0.750000  0.500000  1.0
  Fe  Fe3  1  0.750000  0.250000  0.500000  1.0
  Si  Si4  1  0.634995  0.634995  0.269991  1.0
  Si  Si5  1  0.365005  0.365005  0.730009  1.0
