# generated using pymatgen
data_Eu(MgBi)2
_symmetry_space_group_name_H-M   'P 1'
_cell_length_a   4.84616391
_cell_length_b   4.84613533
_cell_length_c   7.86137227
_cell_angle_alpha   89.99761665
_cell_angle_beta   90.00386401
_cell_angle_gamma   120.00019246
_symmetry_Int_Tables_number   1
_chemical_formula_structural   Eu(MgBi)2
_chemical_formula_sum   'Eu1 Mg2 Bi2'
_cell_volume   159.89017864
_cell_formula_units_Z   1
loop_
 _symmetry_equiv_pos_site_id
 _symmetry_equiv_pos_as_xyz
  1  'x, y, z'
loop_
 _atom_site_type_symbol
 _atom_site_label
 _atom_site_symmetry_multiplicity
 _atom_site_fract_x
 _atom_site_fract_y
 _atom_site_fract_z
 _atom_site_occupancy
  Eu  Eu1  1  0.000042  0.000006  0.000001  1.0
  Mg  Mg2  1  0.666699  0.333332  0.627999  1.0
  Mg  Mg3  1  0.333381  0.666652  0.372002  1.0
  Bi  Bi4  1  0.666717  0.333338  0.245024  1.0
  Bi  Bi5  1  0.333362  0.666671  0.754974  1.0
