# generated using pymatgen
data_Li2CuO2
_symmetry_space_group_name_H-M   'P 1'
_cell_length_a   2.91098665
_cell_length_b   3.70988406
_cell_length_c   5.19904670
_cell_angle_alpha   110.90287981
_cell_angle_beta   106.25745253
_cell_angle_gamma   90.00000000
_symmetry_Int_Tables_number   1
_chemical_formula_structural   Li2CuO2
_chemical_formula_sum   'Li2 Cu1 O2'
_cell_volume   50.04086856
_cell_formula_units_Z   1
loop_
 _symmetry_equiv_pos_site_id
 _symmetry_equiv_pos_as_xyz
  1  'x, y, z'
loop_
 _atom_site_type_symbol
 _atom_site_label
 _atom_site_symmetry_multiplicity
 _atom_site_fract_x
 _atom_site_fract_y
 _atom_site_fract_z
 _atom_site_occupancy
  Li  Li1  1  0.290351  0.790351  0.580703  1.0
  Li  Li2  1  0.709649  0.209649  0.419297  1.0
  Cu  Cu3  1  0.000000  0.500000  0.000000  1.0
  O  O4  1  0.355623  0.355623  0.711247  1.0
  O  O5  1  0.644377  0.644377  0.288753  1.0
