# generated using pymatgen
data_Ho(SiPd)2
_symmetry_space_group_name_H-M   'P 1'
_cell_length_a   4.13410036
_cell_length_b   4.13409984
_cell_length_c   5.80333958
_cell_angle_alpha   110.86595978
_cell_angle_beta   110.86596088
_cell_angle_gamma   89.99999667
_symmetry_Int_Tables_number   1
_chemical_formula_structural   Ho(SiPd)2
_chemical_formula_sum   'Ho1 Si2 Pd2'
_cell_volume   85.68153037
_cell_formula_units_Z   1
loop_
 _symmetry_equiv_pos_site_id
 _symmetry_equiv_pos_as_xyz
  1  'x, y, z'
loop_
 _atom_site_type_symbol
 _atom_site_label
 _atom_site_symmetry_multiplicity
 _atom_site_fract_x
 _atom_site_fract_y
 _atom_site_fract_z
 _atom_site_occupancy
  Ho  Ho1  1  0.000000  0.000000  0.000000  1.0
  Si  Si2  1  0.615322  0.615322  0.230645  1.0
  Si  Si3  1  0.384678  0.384678  0.769355  1.0
  Pd  Pd4  1  0.750000  0.250000  0.500000  1.0
  Pd  Pd5  1  0.250000  0.750000  0.500000  1.0
