# generated using pymatgen
data_Lu(SiRh)2
_symmetry_space_group_name_H-M   'P 1'
_cell_length_a   4.04455923
_cell_length_b   4.04455923
_cell_length_c   5.71337902
_cell_angle_alpha   110.72941814
_cell_angle_beta   110.72941815
_cell_angle_gamma   90.00000004
_symmetry_Int_Tables_number   1
_chemical_formula_structural   Lu(SiRh)2
_chemical_formula_sum   'Lu1 Si2 Rh2'
_cell_volume   80.90985643
_cell_formula_units_Z   1
loop_
 _symmetry_equiv_pos_site_id
 _symmetry_equiv_pos_as_xyz
  1  'x, y, z'
loop_
 _atom_site_type_symbol
 _atom_site_label
 _atom_site_symmetry_multiplicity
 _atom_site_fract_x
 _atom_site_fract_y
 _atom_site_fract_z
 _atom_site_occupancy
  Lu  Lu1  1  0.000000  0.000000  0.000000  1.0
  Si  Si2  1  0.620325  0.620325  0.240651  1.0
  Si  Si3  1  0.379675  0.379675  0.759349  1.0
  Rh  Rh4  1  0.250000  0.750000  0.500000  1.0
  Rh  Rh5  1  0.750000  0.250000  0.500000  1.0
