# generated using pymatgen
data_Nb2CS2
_symmetry_space_group_name_H-M   'P 1'
_cell_length_a   3.28995964
_cell_length_b   3.28995964
_cell_length_c   9.32907465
_cell_angle_alpha   90.00000000
_cell_angle_beta   90.00000000
_cell_angle_gamma   120.00000005
_symmetry_Int_Tables_number   1
_chemical_formula_structural   Nb2CS2
_chemical_formula_sum   'Nb2 C1 S2'
_cell_volume   87.44809240
_cell_formula_units_Z   1
loop_
 _symmetry_equiv_pos_site_id
 _symmetry_equiv_pos_as_xyz
  1  'x, y, z'
loop_
 _atom_site_type_symbol
 _atom_site_label
 _atom_site_symmetry_multiplicity
 _atom_site_fract_x
 _atom_site_fract_y
 _atom_site_fract_z
 _atom_site_occupancy
  Nb  Nb1  1  0.666667  0.333333  0.871595  1.0
  Nb  Nb2  1  0.333333  0.666667  0.128405  1.0
  C  C3  1  0.000000  0.000000  0.000000  1.0
  S  S4  1  0.666667  0.333333  0.305073  1.0
  S  S5  1  0.333333  0.666667  0.694927  1.0
