# generated using pymatgen
data_Ca(NiP)2
_symmetry_space_group_name_H-M   'P 1'
_cell_length_a   3.91020460
_cell_length_b   3.91020460
_cell_length_c   5.44492213
_cell_angle_alpha   111.04303212
_cell_angle_beta   111.04303212
_cell_angle_gamma   90.00000000
_symmetry_Int_Tables_number   1
_chemical_formula_structural   Ca(NiP)2
_chemical_formula_sum   'Ca1 Ni2 P2'
_cell_volume   71.71883577
_cell_formula_units_Z   1
loop_
 _symmetry_equiv_pos_site_id
 _symmetry_equiv_pos_as_xyz
  1  'x, y, z'
loop_
 _atom_site_type_symbol
 _atom_site_label
 _atom_site_symmetry_multiplicity
 _atom_site_fract_x
 _atom_site_fract_y
 _atom_site_fract_z
 _atom_site_occupancy
  Ca  Ca1  1  0.000000  0.000000  0.000000  1.0
  Ni  Ni2  1  0.250000  0.750000  0.500000  1.0
  Ni  Ni3  1  0.750000  0.250000  0.500000  1.0
  P  P4  1  0.623441  0.623441  0.246881  1.0
  P  P5  1  0.376559  0.376559  0.753119  1.0
