# generated using pymatgen
data_Y(SiRh)2
_symmetry_space_group_name_H-M   'P 1'
_cell_length_a   4.06973327
_cell_length_b   4.06973326
_cell_length_c   5.77302526
_cell_angle_alpha   110.63897954
_cell_angle_beta   110.63897953
_cell_angle_gamma   90.00000005
_symmetry_Int_Tables_number   1
_chemical_formula_structural   Y(SiRh)2
_chemical_formula_sum   'Y1 Si2 Rh2'
_cell_volume   82.89055263
_cell_formula_units_Z   1
loop_
 _symmetry_equiv_pos_site_id
 _symmetry_equiv_pos_as_xyz
  1  'x, y, z'
loop_
 _atom_site_type_symbol
 _atom_site_label
 _atom_site_symmetry_multiplicity
 _atom_site_fract_x
 _atom_site_fract_y
 _atom_site_fract_z
 _atom_site_occupancy
  Y  Y1  1  0.000000  0.000000  0.000000  1.0
  Si  Si2  1  0.621785  0.621785  0.243570  1.0
  Si  Si3  1  0.378215  0.378215  0.756430  1.0
  Rh  Rh4  1  0.750000  0.250000  0.500000  1.0
  Rh  Rh5  1  0.250000  0.750000  0.500000  1.0
