# generated using pymatgen
data_Y(AlSi)2
_symmetry_space_group_name_H-M   'P 1'
_cell_length_a   4.21385709
_cell_length_b   4.21385697
_cell_length_c   6.57737356
_cell_angle_alpha   90.00000000
_cell_angle_beta   90.00000000
_cell_angle_gamma   120.00000088
_symmetry_Int_Tables_number   1
_chemical_formula_structural   Y(AlSi)2
_chemical_formula_sum   'Y1 Al2 Si2'
_cell_volume   101.14460650
_cell_formula_units_Z   1
loop_
 _symmetry_equiv_pos_site_id
 _symmetry_equiv_pos_as_xyz
  1  'x, y, z'
loop_
 _atom_site_type_symbol
 _atom_site_label
 _atom_site_symmetry_multiplicity
 _atom_site_fract_x
 _atom_site_fract_y
 _atom_site_fract_z
 _atom_site_occupancy
  Y  Y1  1  0.000000  0.000000  0.000000  1.0
  Al  Al2  1  0.666667  0.333333  0.355292  1.0
  Al  Al3  1  0.333333  0.666667  0.644708  1.0
  Si  Si4  1  0.666667  0.333333  0.739725  1.0
  Si  Si5  1  0.333333  0.666667  0.260275  1.0
