# generated using pymatgen
data_Ba(MnSb)2
_symmetry_space_group_name_H-M   'P 1'
_cell_length_a   4.53030536
_cell_length_b   4.53030536
_cell_length_c   7.22132092
_cell_angle_alpha   108.28088373
_cell_angle_beta   108.28088373
_cell_angle_gamma   90.00000000
_symmetry_Int_Tables_number   1
_chemical_formula_structural   Ba(MnSb)2
_chemical_formula_sum   'Ba1 Mn2 Sb2'
_cell_volume   132.82736064
_cell_formula_units_Z   1
loop_
 _symmetry_equiv_pos_site_id
 _symmetry_equiv_pos_as_xyz
  1  'x, y, z'
loop_
 _atom_site_type_symbol
 _atom_site_label
 _atom_site_symmetry_multiplicity
 _atom_site_fract_x
 _atom_site_fract_y
 _atom_site_fract_z
 _atom_site_occupancy
  Ba  Ba1  1  0.000000  0.000000  0.000000  1.0
  Mn  Mn2  1  0.250000  0.750000  0.500000  1.0
  Mn  Mn3  1  0.750000  0.250000  0.500000  1.0
  Sb  Sb4  1  0.636233  0.636233  0.272465  1.0
  Sb  Sb5  1  0.363767  0.363767  0.727535  1.0
