# generated using pymatgen
data_Y2InNi2
_symmetry_space_group_name_H-M   'P 1'
_cell_length_a   3.64037133
_cell_length_b   3.97898671
_cell_length_c   7.39432131
_cell_angle_alpha   105.60815751
_cell_angle_beta   90.00000000
_cell_angle_gamma   90.00000000
_symmetry_Int_Tables_number   1
_chemical_formula_structural   Y2InNi2
_chemical_formula_sum   'Y2 In1 Ni2'
_cell_volume   103.15702741
_cell_formula_units_Z   1
loop_
 _symmetry_equiv_pos_site_id
 _symmetry_equiv_pos_as_xyz
  1  'x, y, z'
loop_
 _atom_site_type_symbol
 _atom_site_label
 _atom_site_symmetry_multiplicity
 _atom_site_fract_x
 _atom_site_fract_y
 _atom_site_fract_z
 _atom_site_occupancy
  Y  Y1  1  0.500000  0.637488  0.274977  1.0
  Y  Y2  1  0.500000  0.362512  0.725023  1.0
  In  In3  1  0.000000  0.000000  0.000000  1.0
  Ni  Ni4  1  0.000000  0.199524  0.399048  1.0
  Ni  Ni5  1  0.000000  0.800476  0.600952  1.0
