# generated using pymatgen
data_Sr(CuGe)2
_symmetry_space_group_name_H-M   'P 1'
_cell_length_a   4.28150061
_cell_length_b   4.28150061
_cell_length_c   5.97479235
_cell_angle_alpha   110.99564712
_cell_angle_beta   110.99564709
_cell_angle_gamma   89.99999997
_symmetry_Int_Tables_number   1
_chemical_formula_structural   Sr(CuGe)2
_chemical_formula_sum   'Sr1 Cu2 Ge2'
_cell_volume   94.42375550
_cell_formula_units_Z   1
loop_
 _symmetry_equiv_pos_site_id
 _symmetry_equiv_pos_as_xyz
  1  'x, y, z'
loop_
 _atom_site_type_symbol
 _atom_site_label
 _atom_site_symmetry_multiplicity
 _atom_site_fract_x
 _atom_site_fract_y
 _atom_site_fract_z
 _atom_site_occupancy
  Sr  Sr1  1  0.000000  0.000000  0.000000  1.0
  Cu  Cu2  1  0.750000  0.250000  0.500000  1.0
  Cu  Cu3  1  0.250000  0.750000  0.500000  1.0
  Ge  Ge4  1  0.626551  0.626551  0.253103  1.0
  Ge  Ge5  1  0.373449  0.373449  0.746897  1.0
