# generated using pymatgen
data_Ni(AgO)2
_symmetry_space_group_name_H-M   'P 1'
_cell_length_a   3.03126368
_cell_length_b   3.03126368
_cell_length_c   7.97105075
_cell_angle_alpha   79.07417594
_cell_angle_beta   79.07417594
_cell_angle_gamma   59.92514843
_symmetry_Int_Tables_number   1
_chemical_formula_structural   Ni(AgO)2
_chemical_formula_sum   'Ni1 Ag2 O2'
_cell_volume   61.84650930
_cell_formula_units_Z   1
loop_
 _symmetry_equiv_pos_site_id
 _symmetry_equiv_pos_as_xyz
  1  'x, y, z'
loop_
 _atom_site_type_symbol
 _atom_site_label
 _atom_site_symmetry_multiplicity
 _atom_site_fract_x
 _atom_site_fract_y
 _atom_site_fract_z
 _atom_site_occupancy
  Ni  Ni1  1  0.000000  0.000000  0.000000  1.0
  Ag  Ag2  1  0.785333  0.785333  0.644334  1.0
  Ag  Ag3  1  0.214667  0.214667  0.355666  1.0
  O  O4  1  0.619185  0.619185  0.140146  1.0
  O  O5  1  0.380815  0.380815  0.859854  1.0
