# generated using pymatgen
data_Li3Ga2
_symmetry_space_group_name_H-M   'P 1'
_cell_length_a   4.36848119
_cell_length_b   4.36848119
_cell_length_c   5.25951600
_cell_angle_alpha   65.46222439
_cell_angle_beta   65.46222439
_cell_angle_gamma   59.99999561
_symmetry_Int_Tables_number   1
_chemical_formula_structural   Li3Ga2
_chemical_formula_sum   'Li3 Ga2'
_cell_volume   76.27717434
_cell_formula_units_Z   1
loop_
 _symmetry_equiv_pos_site_id
 _symmetry_equiv_pos_as_xyz
  1  'x, y, z'
loop_
 _atom_site_type_symbol
 _atom_site_label
 _atom_site_symmetry_multiplicity
 _atom_site_fract_x
 _atom_site_fract_y
 _atom_site_fract_z
 _atom_site_occupancy
  Li  Li1  1  0.000000  0.000000  0.000000  1.0
  Li  Li2  1  0.404041  0.404041  0.787878  1.0
  Li  Li3  1  0.595959  0.595959  0.212122  1.0
  Ga  Ga4  1  0.799400  0.799400  0.601799  1.0
  Ga  Ga5  1  0.200600  0.200600  0.398201  1.0
