# generated using pymatgen
data_Y(SiNi)2
_symmetry_space_group_name_H-M   'P 1'
_cell_length_a   3.97651339
_cell_length_b   3.97651328
_cell_length_c   5.54894715
_cell_angle_alpha   110.99659703
_cell_angle_beta   110.99659798
_cell_angle_gamma   89.99999489
_symmetry_Int_Tables_number   1
_chemical_formula_structural   Y(SiNi)2
_chemical_formula_sum   'Y1 Si2 Ni2'
_cell_volume   75.64416437
_cell_formula_units_Z   1
loop_
 _symmetry_equiv_pos_site_id
 _symmetry_equiv_pos_as_xyz
  1  'x, y, z'
loop_
 _atom_site_type_symbol
 _atom_site_label
 _atom_site_symmetry_multiplicity
 _atom_site_fract_x
 _atom_site_fract_y
 _atom_site_fract_z
 _atom_site_occupancy
  Y  Y1  1  0.000000  0.000000  0.000000  1.0
  Si  Si2  1  0.626897  0.626897  0.253795  1.0
  Si  Si3  1  0.373103  0.373103  0.746205  1.0
  Ni  Ni4  1  0.750000  0.250000  0.500000  1.0
  Ni  Ni5  1  0.250000  0.750000  0.500000  1.0
