# generated using pymatgen
data_Sr(AsPd)2
_symmetry_space_group_name_H-M   'P 1'
_cell_length_a   4.43432404
_cell_length_b   4.43432404
_cell_length_c   6.08003393
_cell_angle_alpha   111.38683655
_cell_angle_beta   111.38683655
_cell_angle_gamma   90.00000000
_symmetry_Int_Tables_number   1
_chemical_formula_structural   Sr(AsPd)2
_chemical_formula_sum   'Sr1 As2 Pd2'
_cell_volume   102.42861621
_cell_formula_units_Z   1
loop_
 _symmetry_equiv_pos_site_id
 _symmetry_equiv_pos_as_xyz
  1  'x, y, z'
loop_
 _atom_site_type_symbol
 _atom_site_label
 _atom_site_symmetry_multiplicity
 _atom_site_fract_x
 _atom_site_fract_y
 _atom_site_fract_z
 _atom_site_occupancy
  Sr  Sr1  1  0.000000  0.000000  0.000000  1.0
  As  As2  1  0.623764  0.623764  0.247528  1.0
  As  As3  1  0.376236  0.376236  0.752472  1.0
  Pd  Pd4  1  0.250000  0.750000  0.500000  1.0
  Pd  Pd5  1  0.750000  0.250000  0.500000  1.0
