# generated using pymatgen
data_Sb2Te3
_symmetry_space_group_name_H-M   'P 1'
_cell_length_a   10.74489566
_cell_length_b   10.74489566
_cell_length_c   10.74489565
_cell_angle_alpha   23.26376967
_cell_angle_beta   23.26376963
_cell_angle_gamma   23.26376965
_symmetry_Int_Tables_number   1
_chemical_formula_structural   Sb2Te3
_chemical_formula_sum   'Sb2 Te3'
_cell_volume   169.89341557
_cell_formula_units_Z   1
loop_
 _symmetry_equiv_pos_site_id
 _symmetry_equiv_pos_as_xyz
  1  'x, y, z'
loop_
 _atom_site_type_symbol
 _atom_site_label
 _atom_site_symmetry_multiplicity
 _atom_site_fract_x
 _atom_site_fract_y
 _atom_site_fract_z
 _atom_site_occupancy
  Sb  Sb1  1  0.603278  0.603278  0.603278  1.0
  Sb  Sb2  1  0.396722  0.396722  0.396722  1.0
  Te  Te3  1  0.784625  0.784625  0.784625  1.0
  Te  Te4  1  0.215375  0.215375  0.215375  1.0
  Te  Te5  1  0.000000  0.000000  0.000000  1.0
