# generated using pymatgen
data_Ba(FeAs)2
_symmetry_space_group_name_H-M   'P 1'
_cell_length_a   3.97281317
_cell_length_b   3.97281335
_cell_length_c   6.91770794
_cell_angle_alpha   106.68728971
_cell_angle_beta   106.68729045
_cell_angle_gamma   90.00000189
_symmetry_Int_Tables_number   1
_chemical_formula_structural   Ba(FeAs)2
_chemical_formula_sum   'Ba1 Fe2 As2'
_cell_volume   99.77590786
_cell_formula_units_Z   1
loop_
 _symmetry_equiv_pos_site_id
 _symmetry_equiv_pos_as_xyz
  1  'x, y, z'
loop_
 _atom_site_type_symbol
 _atom_site_label
 _atom_site_symmetry_multiplicity
 _atom_site_fract_x
 _atom_site_fract_y
 _atom_site_fract_z
 _atom_site_occupancy
  Ba  Ba1  1  0.000000  0.000000  0.000000  1.0
  Fe  Fe2  1  0.250000  0.750000  0.500000  1.0
  Fe  Fe3  1  0.750000  0.250000  0.500000  1.0
  As  As4  1  0.345345  0.345345  0.690690  1.0
  As  As5  1  0.654655  0.654655  0.309310  1.0
