# generated using pymatgen
data_Ba(CuAs)2
_symmetry_space_group_name_H-M   'P 1'
_cell_length_a   4.29365681
_cell_length_b   4.29365680
_cell_length_c   6.44769142
_cell_angle_alpha   109.44858207
_cell_angle_beta   109.44858197
_cell_angle_gamma   89.99999996
_symmetry_Int_Tables_number   1
_chemical_formula_structural   Ba(CuAs)2
_chemical_formula_sum   'Ba1 Cu2 As2'
_cell_volume   104.86371169
_cell_formula_units_Z   1
loop_
 _symmetry_equiv_pos_site_id
 _symmetry_equiv_pos_as_xyz
  1  'x, y, z'
loop_
 _atom_site_type_symbol
 _atom_site_label
 _atom_site_symmetry_multiplicity
 _atom_site_fract_x
 _atom_site_fract_y
 _atom_site_fract_z
 _atom_site_occupancy
  Ba  Ba1  1  0.000000  0.000000  0.000000  1.0
  Cu  Cu2  1  0.750000  0.250000  0.500000  1.0
  Cu  Cu3  1  0.250000  0.750000  0.500000  1.0
  As  As4  1  0.638633  0.638633  0.277266  1.0
  As  As5  1  0.361367  0.361367  0.722734  1.0
