# generated using pymatgen
data_Mn2VGe
_symmetry_space_group_name_H-M   'P 1'
_cell_length_a   4.07603364
_cell_length_b   4.07717294
_cell_length_c   4.07764062
_cell_angle_alpha   60.00344943
_cell_angle_beta   60.01983242
_cell_angle_gamma   60.02000467
_symmetry_Int_Tables_number   1
_chemical_formula_structural   Mn2VGe
_chemical_formula_sum   'Mn2 V1 Ge1'
_cell_volume   47.93280627
_cell_formula_units_Z   1
loop_
 _symmetry_equiv_pos_site_id
 _symmetry_equiv_pos_as_xyz
  1  'x, y, z'
loop_
 _atom_site_type_symbol
 _atom_site_label
 _atom_site_symmetry_multiplicity
 _atom_site_fract_x
 _atom_site_fract_y
 _atom_site_fract_z
 _atom_site_occupancy
  Mn  Mn1  1  0.000037  0.000086  0.000023  1.0
  Mn  Mn2  1  0.499935  0.499934  0.500016  1.0
  V  V3  1  0.750005  0.749978  0.749961  1.0
  Ge  Ge4  1  0.250022  0.250000  0.249998  1.0
