# generated using pymatgen
data_U2IrC2
_symmetry_space_group_name_H-M   'P 1'
_cell_length_a   3.47728436
_cell_length_b   3.47728436
_cell_length_c   6.71165387
_cell_angle_alpha   105.01359607
_cell_angle_beta   105.01359606
_cell_angle_gamma   89.99999996
_symmetry_Int_Tables_number   1
_chemical_formula_structural   U2IrC2
_chemical_formula_sum   'U2 Ir1 C2'
_cell_volume   75.51196107
_cell_formula_units_Z   1
loop_
 _symmetry_equiv_pos_site_id
 _symmetry_equiv_pos_as_xyz
  1  'x, y, z'
loop_
 _atom_site_type_symbol
 _atom_site_label
 _atom_site_symmetry_multiplicity
 _atom_site_fract_x
 _atom_site_fract_y
 _atom_site_fract_z
 _atom_site_occupancy
  U  U1  1  0.353998  0.353998  0.707996  1.0
  U  U2  1  0.646002  0.646002  0.292004  1.0
  Ir  Ir3  1  0.000000  0.000000  0.000000  1.0
  C  C4  1  0.829562  0.829562  0.659125  1.0
  C  C5  1  0.170438  0.170438  0.340875  1.0
