# generated using pymatgen
data_Ho(SiIr)2
_symmetry_space_group_name_H-M   'P 1'
_cell_length_a   4.08055314
_cell_length_b   4.08055229
_cell_length_c   5.75167606
_cell_angle_alpha   110.77673006
_cell_angle_beta   110.77672531
_cell_angle_gamma   90.00000282
_symmetry_Int_Tables_number   1
_chemical_formula_structural   Ho(SiIr)2
_chemical_formula_sum   'Ho1 Si2 Ir2'
_cell_volume   82.84781597
_cell_formula_units_Z   1
loop_
 _symmetry_equiv_pos_site_id
 _symmetry_equiv_pos_as_xyz
  1  'x, y, z'
loop_
 _atom_site_type_symbol
 _atom_site_label
 _atom_site_symmetry_multiplicity
 _atom_site_fract_x
 _atom_site_fract_y
 _atom_site_fract_z
 _atom_site_occupancy
  Ho  Ho1  1  0.000000  0.000000  0.000000  1.0
  Si  Si2  1  0.379058  0.379058  0.758117  1.0
  Si  Si3  1  0.620942  0.620942  0.241883  1.0
  Ir  Ir4  1  0.750000  0.250000  0.500000  1.0
  Ir  Ir5  1  0.250000  0.750000  0.500000  1.0
