# generated using pymatgen
data_Th(CrSi)2
_symmetry_space_group_name_H-M   'P 1'
_cell_length_a   4.00441417
_cell_length_b   4.00441417
_cell_length_c   5.99857408
_cell_angle_alpha   109.49839812
_cell_angle_beta   109.49839823
_cell_angle_gamma   89.99999995
_symmetry_Int_Tables_number   1
_chemical_formula_structural   Th(CrSi)2
_chemical_formula_sum   'Th1 Cr2 Si2'
_cell_volume   84.79829778
_cell_formula_units_Z   1
loop_
 _symmetry_equiv_pos_site_id
 _symmetry_equiv_pos_as_xyz
  1  'x, y, z'
loop_
 _atom_site_type_symbol
 _atom_site_label
 _atom_site_symmetry_multiplicity
 _atom_site_fract_x
 _atom_site_fract_y
 _atom_site_fract_z
 _atom_site_occupancy
  Th  Th1  1  0.000000  0.000000  0.000000  1.0
  Cr  Cr2  1  0.250000  0.750000  0.500000  1.0
  Cr  Cr3  1  0.750000  0.250000  0.500000  1.0
  Si  Si4  1  0.622130  0.622130  0.244260  1.0
  Si  Si5  1  0.377870  0.377870  0.755740  1.0
