# generated using pymatgen
data_Zr2Al
_symmetry_space_group_name_H-M   'P 1'
_cell_length_a   5.37923583
_cell_length_b   5.54994428
_cell_length_c   5.54994428
_cell_angle_alpha   76.41679295
_cell_angle_beta   61.01237490
_cell_angle_gamma   61.01237486
_symmetry_Int_Tables_number   1
_chemical_formula_structural   Zr2Al
_chemical_formula_sum   'Zr4 Al2'
_cell_volume   126.77695305
_cell_formula_units_Z   2
loop_
 _symmetry_equiv_pos_site_id
 _symmetry_equiv_pos_as_xyz
  1  'x, y, z'
loop_
 _atom_site_type_symbol
 _atom_site_label
 _atom_site_symmetry_multiplicity
 _atom_site_fract_x
 _atom_site_fract_y
 _atom_site_fract_z
 _atom_site_occupancy
  Zr  Zr1  1  0.651750  0.196499  0.500000  1.0
  Zr  Zr2  1  0.848250  0.500000  0.803501  1.0
  Zr  Zr3  1  0.348250  0.803501  0.500000  1.0
  Zr  Zr4  1  0.151750  0.500000  0.196499  1.0
  Al  Al5  1  0.750000  0.000000  0.000000  1.0
  Al  Al6  1  0.250000  0.000000  0.000000  1.0
