# generated using pymatgen
data_ErZn2
_symmetry_space_group_name_H-M   'P 1'
_cell_length_a   4.44985248
_cell_length_b   5.61431732
_cell_length_c   5.61431732
_cell_angle_alpha   77.56245735
_cell_angle_beta   66.65323162
_cell_angle_gamma   66.65323162
_symmetry_Int_Tables_number   1
_chemical_formula_structural   ErZn2
_chemical_formula_sum   'Er2 Zn4'
_cell_volume   117.95038311
_cell_formula_units_Z   2
loop_
 _symmetry_equiv_pos_site_id
 _symmetry_equiv_pos_as_xyz
  1  'x, y, z'
loop_
 _atom_site_type_symbol
 _atom_site_label
 _atom_site_symmetry_multiplicity
 _atom_site_fract_x
 _atom_site_fract_y
 _atom_site_fract_z
 _atom_site_occupancy
  Er  Er1  1  0.466028  0.283972  0.783972  1.0
  Er  Er2  1  0.533972  0.716028  0.216028  1.0
  Zn  Zn3  1  0.834047  0.121651  0.210254  1.0
  Zn  Zn4  1  0.165953  0.878349  0.789746  1.0
  Zn  Zn5  1  0.834047  0.710254  0.621651  1.0
  Zn  Zn6  1  0.165953  0.289746  0.378349  1.0
