# generated using pymatgen
data_BaClF
_symmetry_space_group_name_H-M   'P 1'
_cell_length_a   4.46110671
_cell_length_b   4.46110671
_cell_length_c   7.34887250
_cell_angle_alpha   90.00000000
_cell_angle_beta   90.00000000
_cell_angle_gamma   90.00000000
_symmetry_Int_Tables_number   1
_chemical_formula_structural   BaClF
_chemical_formula_sum   'Ba2 Cl2 F2'
_cell_volume   146.25338821
_cell_formula_units_Z   2
loop_
 _symmetry_equiv_pos_site_id
 _symmetry_equiv_pos_as_xyz
  1  'x, y, z'
loop_
 _atom_site_type_symbol
 _atom_site_label
 _atom_site_symmetry_multiplicity
 _atom_site_fract_x
 _atom_site_fract_y
 _atom_site_fract_z
 _atom_site_occupancy
  Ba  Ba1  1  0.750000  0.750000  0.794420  1.0
  Ba  Ba2  1  0.250000  0.250000  0.205580  1.0
  Cl  Cl3  1  0.250000  0.250000  0.647075  1.0
  Cl  Cl4  1  0.750000  0.750000  0.352925  1.0
  F  F5  1  0.750000  0.250000  0.000000  1.0
  F  F6  1  0.250000  0.750000  0.000000  1.0
