# generated using pymatgen
data_ZrSn2
_symmetry_space_group_name_H-M   'P 1'
_cell_length_a   5.63614920
_cell_length_b   5.63614920
_cell_length_c   5.76056812
_cell_angle_alpha   104.65383790
_cell_angle_beta   104.65383790
_cell_angle_gamma   118.87326368
_symmetry_Int_Tables_number   1
_chemical_formula_structural   ZrSn2
_chemical_formula_sum   'Zr2 Sn4'
_cell_volume   139.00476095
_cell_formula_units_Z   2
loop_
 _symmetry_equiv_pos_site_id
 _symmetry_equiv_pos_as_xyz
  1  'x, y, z'
loop_
 _atom_site_type_symbol
 _atom_site_label
 _atom_site_symmetry_multiplicity
 _atom_site_fract_x
 _atom_site_fract_y
 _atom_site_fract_z
 _atom_site_occupancy
  Zr  Zr1  1  0.625000  0.875000  0.750000  1.0
  Zr  Zr2  1  0.375000  0.125000  0.250000  1.0
  Sn  Sn3  1  0.956180  0.543820  0.750000  1.0
  Sn  Sn4  1  0.293820  0.206180  0.750000  1.0
  Sn  Sn5  1  0.043820  0.456180  0.250000  1.0
  Sn  Sn6  1  0.706180  0.793820  0.250000  1.0
