# generated using pymatgen
data_NbRh
_symmetry_space_group_name_H-M   'P 1'
_cell_length_a   2.86699598
_cell_length_b   4.90197557
_cell_length_c   20.66240749
_cell_angle_alpha   90.36466947
_cell_angle_beta   90.00000000
_cell_angle_gamma   90.00000000
_symmetry_Int_Tables_number   1
_chemical_formula_structural   NbRh
_chemical_formula_sum   'Nb9 Rh9'
_cell_volume   290.38244132
_cell_formula_units_Z   9
loop_
 _symmetry_equiv_pos_site_id
 _symmetry_equiv_pos_as_xyz
  1  'x, y, z'
loop_
 _atom_site_type_symbol
 _atom_site_label
 _atom_site_symmetry_multiplicity
 _atom_site_fract_x
 _atom_site_fract_y
 _atom_site_fract_z
 _atom_site_occupancy
  Nb  Nb1  1  0.000000  0.968425  0.777644  1.0
  Nb  Nb2  1  0.000000  0.333233  0.666703  1.0
  Nb  Nb3  1  0.000000  0.031575  0.222356  1.0
  Nb  Nb4  1  0.000000  0.365065  0.888955  1.0
  Nb  Nb5  1  0.000000  0.698318  0.555708  1.0
  Nb  Nb6  1  0.000000  0.000000  0.000000  1.0
  Nb  Nb7  1  0.000000  0.666767  0.333297  1.0
  Nb  Nb8  1  0.000000  0.634935  0.111045  1.0
  Nb  Nb9  1  0.000000  0.301682  0.444292  1.0
  Rh  Rh10  1  0.500000  0.166646  0.333317  1.0
  Rh  Rh11  1  0.500000  0.810994  0.444872  1.0
  Rh  Rh12  1  0.500000  0.522275  0.221777  1.0
  Rh  Rh13  1  0.500000  0.855798  0.888383  1.0
  Rh  Rh14  1  0.500000  0.833354  0.666683  1.0
  Rh  Rh15  1  0.500000  0.477725  0.778223  1.0
  Rh  Rh16  1  0.500000  0.144202  0.111617  1.0
  Rh  Rh17  1  0.500000  0.189006  0.555128  1.0
  Rh  Rh18  1  0.500000  0.500000  0.000000  1.0
