# generated using pymatgen
data_ErCu2
_symmetry_space_group_name_H-M   'P 1'
_cell_length_a   4.29218187
_cell_length_b   5.38952570
_cell_length_c   5.38952570
_cell_angle_alpha   77.42286491
_cell_angle_beta   66.53450615
_cell_angle_gamma   66.53450615
_symmetry_Int_Tables_number   1
_chemical_formula_structural   ErCu2
_chemical_formula_sum   'Er2 Cu4'
_cell_volume   104.64651453
_cell_formula_units_Z   2
loop_
 _symmetry_equiv_pos_site_id
 _symmetry_equiv_pos_as_xyz
  1  'x, y, z'
loop_
 _atom_site_type_symbol
 _atom_site_label
 _atom_site_symmetry_multiplicity
 _atom_site_fract_x
 _atom_site_fract_y
 _atom_site_fract_z
 _atom_site_occupancy
  Er  Er1  1  0.541945  0.708055  0.208055  1.0
  Er  Er2  1  0.458055  0.291945  0.791945  1.0
  Cu  Cu3  1  0.165259  0.284486  0.384996  1.0
  Cu  Cu4  1  0.834741  0.715514  0.615004  1.0
  Cu  Cu5  1  0.834741  0.115004  0.215514  1.0
  Cu  Cu6  1  0.165259  0.884996  0.784486  1.0
