# generated using pymatgen
data_TaSe2
_symmetry_space_group_name_H-M   'P 1'
_cell_length_a   3.47406122
_cell_length_b   3.47406122
_cell_length_c   13.70318038
_cell_angle_alpha   90.00000000
_cell_angle_beta   90.00000000
_cell_angle_gamma   119.99390929
_symmetry_Int_Tables_number   1
_chemical_formula_structural   TaSe2
_chemical_formula_sum   'Ta2 Se4'
_cell_volume   143.23646425
_cell_formula_units_Z   2
loop_
 _symmetry_equiv_pos_site_id
 _symmetry_equiv_pos_as_xyz
  1  'x, y, z'
loop_
 _atom_site_type_symbol
 _atom_site_label
 _atom_site_symmetry_multiplicity
 _atom_site_fract_x
 _atom_site_fract_y
 _atom_site_fract_z
 _atom_site_occupancy
  Ta  Ta1  1  0.999995  0.000005  0.750000  1.0
  Ta  Ta2  1  0.000005  0.999995  0.250000  1.0
  Se  Se3  1  0.666638  0.333362  0.627184  1.0
  Se  Se4  1  0.333362  0.666638  0.372816  1.0
  Se  Se5  1  0.333362  0.666638  0.127184  1.0
  Se  Se6  1  0.666638  0.333362  0.872816  1.0
