# generated using pymatgen
data_TaAs2
_symmetry_space_group_name_H-M   'P 1'
_cell_length_a   3.42593835
_cell_length_b   5.02115138
_cell_length_c   7.07765627
_cell_angle_alpha   78.87211142
_cell_angle_beta   75.99391650
_cell_angle_gamma   70.05300518
_symmetry_Int_Tables_number   1
_chemical_formula_structural   TaAs2
_chemical_formula_sum   'Ta2 As4'
_cell_volume   110.22744779
_cell_formula_units_Z   2
loop_
 _symmetry_equiv_pos_site_id
 _symmetry_equiv_pos_as_xyz
  1  'x, y, z'
loop_
 _atom_site_type_symbol
 _atom_site_label
 _atom_site_symmetry_multiplicity
 _atom_site_fract_x
 _atom_site_fract_y
 _atom_site_fract_z
 _atom_site_occupancy
  Ta  Ta1  1  0.156911  0.881559  0.804620  1.0
  Ta  Ta2  1  0.843089  0.118441  0.195380  1.0
  As  As3  1  0.859378  0.753581  0.527663  1.0
  As  As4  1  0.140622  0.246419  0.472337  1.0
  As  As5  1  0.405677  0.296300  0.892345  1.0
  As  As6  1  0.594323  0.703700  0.107655  1.0
