# generated using pymatgen
data_CaMnSi
_symmetry_space_group_name_H-M   'P 1'
_cell_length_a   3.92172948
_cell_length_b   3.92172948
_cell_length_c   7.90564514
_cell_angle_alpha   90.00000000
_cell_angle_beta   90.00000000
_cell_angle_gamma   90.00000000
_symmetry_Int_Tables_number   1
_chemical_formula_structural   CaMnSi
_chemical_formula_sum   'Ca2 Mn2 Si2'
_cell_volume   121.58852274
_cell_formula_units_Z   2
loop_
 _symmetry_equiv_pos_site_id
 _symmetry_equiv_pos_as_xyz
  1  'x, y, z'
loop_
 _atom_site_type_symbol
 _atom_site_label
 _atom_site_symmetry_multiplicity
 _atom_site_fract_x
 _atom_site_fract_y
 _atom_site_fract_z
 _atom_site_occupancy
  Ca  Ca1  1  0.000000  0.500000  0.319379  1.0
  Ca  Ca2  1  0.500000  0.000000  0.680621  1.0
  Mn  Mn3  1  0.500000  0.500000  0.000000  1.0
  Mn  Mn4  1  0.000000  0.000000  0.000000  1.0
  Si  Si5  1  0.000000  0.500000  0.828510  1.0
  Si  Si6  1  0.500000  0.000000  0.171490  1.0
