# generated using pymatgen
data_LaSi2
_symmetry_space_group_name_H-M   'P 1'
_cell_length_a   4.34804398
_cell_length_b   4.34808801
_cell_length_c   7.57272572
_cell_angle_alpha   106.91900174
_cell_angle_beta   106.91920229
_cell_angle_gamma   89.85537076
_symmetry_Int_Tables_number   1
_chemical_formula_structural   LaSi2
_chemical_formula_sum   'La2 Si4'
_cell_volume   130.51307538
_cell_formula_units_Z   2
loop_
 _symmetry_equiv_pos_site_id
 _symmetry_equiv_pos_as_xyz
  1  'x, y, z'
loop_
 _atom_site_type_symbol
 _atom_site_label
 _atom_site_symmetry_multiplicity
 _atom_site_fract_x
 _atom_site_fract_y
 _atom_site_fract_z
 _atom_site_occupancy
  La  La1  1  0.251465  0.748538  0.500000  1.0
  La  La2  1  0.998529  0.001470  0.000000  1.0
  Si  Si3  1  0.664951  0.165240  0.330482  1.0
  Si  Si4  1  0.584983  0.584684  0.169521  1.0
  Si  Si5  1  0.834754  0.335049  0.669514  1.0
  Si  Si6  1  0.415317  0.415018  0.830481  1.0
