# generated using pymatgen
data_Hf2Ga
_symmetry_space_group_name_H-M   'P 1'
_cell_length_a   5.29151382
_cell_length_b   5.43377828
_cell_length_c   5.43377828
_cell_angle_alpha   76.28570016
_cell_angle_beta   60.86236283
_cell_angle_gamma   60.86236278
_symmetry_Int_Tables_number   1
_chemical_formula_structural   Hf2Ga
_chemical_formula_sum   'Hf4 Ga2'
_cell_volume   119.19619993
_cell_formula_units_Z   2
loop_
 _symmetry_equiv_pos_site_id
 _symmetry_equiv_pos_as_xyz
  1  'x, y, z'
loop_
 _atom_site_type_symbol
 _atom_site_label
 _atom_site_symmetry_multiplicity
 _atom_site_fract_x
 _atom_site_fract_y
 _atom_site_fract_z
 _atom_site_occupancy
  Hf  Hf1  1  0.153688  0.500000  0.192624  1.0
  Hf  Hf2  1  0.346312  0.807376  0.500000  1.0
  Hf  Hf3  1  0.653688  0.192624  0.500000  1.0
  Hf  Hf4  1  0.846312  0.500000  0.807376  1.0
  Ga  Ga5  1  0.250000  0.000000  0.000000  1.0
  Ga  Ga6  1  0.750000  0.000000  0.000000  1.0
