# generated using pymatgen
data_NbCrN
_symmetry_space_group_name_H-M   'P 1'
_cell_length_a   4.29464324
_cell_length_b   4.29464324
_cell_length_c   7.42512975
_cell_angle_alpha   90.00000000
_cell_angle_beta   90.00000000
_cell_angle_gamma   90.00000000
_symmetry_Int_Tables_number   1
_chemical_formula_structural   NbCrN
_chemical_formula_sum   'Nb4 Cr4 N4'
_cell_volume   136.94880025
_cell_formula_units_Z   4
loop_
 _symmetry_equiv_pos_site_id
 _symmetry_equiv_pos_as_xyz
  1  'x, y, z'
loop_
 _atom_site_type_symbol
 _atom_site_label
 _atom_site_symmetry_multiplicity
 _atom_site_fract_x
 _atom_site_fract_y
 _atom_site_fract_z
 _atom_site_occupancy
  Nb  Nb1  1  0.000000  0.500000  0.004766  1.0
  Nb  Nb2  1  0.500000  0.000000  0.004766  1.0
  Nb  Nb3  1  0.000000  0.000000  0.648633  1.0
  Nb  Nb4  1  0.500000  0.500000  0.648633  1.0
  Cr  Cr5  1  0.000000  0.000000  0.240453  1.0
  Cr  Cr6  1  0.500000  0.500000  0.240453  1.0
  Cr  Cr7  1  0.000000  0.500000  0.412797  1.0
  Cr  Cr8  1  0.500000  0.000000  0.412797  1.0
  N  N9  1  0.000000  0.000000  0.965720  1.0
  N  N10  1  0.500000  0.500000  0.965720  1.0
  N  N11  1  0.000000  0.500000  0.687631  1.0
  N  N12  1  0.500000  0.000000  0.687631  1.0
