# generated using pymatgen
data_YFe5
_symmetry_space_group_name_H-M   'P 1'
_cell_length_a   3.91609917
_cell_length_b   5.07969396
_cell_length_c   5.07711528
_cell_angle_alpha   120.01680117
_cell_angle_beta   90.00000000
_cell_angle_gamma   90.00000000
_symmetry_Int_Tables_number   1
_chemical_formula_structural   YFe5
_chemical_formula_sum   'Y1 Fe5'
_cell_volume   87.45111164
_cell_formula_units_Z   1
loop_
 _symmetry_equiv_pos_site_id
 _symmetry_equiv_pos_as_xyz
  1  'x, y, z'
loop_
 _atom_site_type_symbol
 _atom_site_label
 _atom_site_symmetry_multiplicity
 _atom_site_fract_x
 _atom_site_fract_y
 _atom_site_fract_z
 _atom_site_occupancy
  Y  Y1  1  0.000000  0.999983  0.000000  1.0
  Fe  Fe2  1  0.500000  0.499998  0.000000  1.0
  Fe  Fe3  1  0.500000  0.499992  0.500003  1.0
  Fe  Fe4  1  0.500000  0.999989  0.499997  1.0
  Fe  Fe5  1  0.000000  0.333344  0.666752  1.0
  Fe  Fe6  1  0.000000  0.666593  0.333248  1.0
