# generated using pymatgen
data_AlPO4
_symmetry_space_group_name_H-M   'P 1'
_cell_length_a   5.13272951
_cell_length_b   5.10648652
_cell_length_c   8.46243015
_cell_angle_alpha   90.00000000
_cell_angle_beta   90.00000000
_cell_angle_gamma   118.80529206
_symmetry_Int_Tables_number   1
_chemical_formula_structural   AlPO4
_chemical_formula_sum   'Al2 P2 O8'
_cell_volume   194.35679655
_cell_formula_units_Z   2
loop_
 _symmetry_equiv_pos_site_id
 _symmetry_equiv_pos_as_xyz
  1  'x, y, z'
loop_
 _atom_site_type_symbol
 _atom_site_label
 _atom_site_symmetry_multiplicity
 _atom_site_fract_x
 _atom_site_fract_y
 _atom_site_fract_z
 _atom_site_occupancy
  Al  Al1  1  0.352787  0.602531  0.932692  1.0
  Al  Al2  1  0.647213  0.397469  0.432692  1.0
  P  P3  1  0.305497  0.725601  0.558198  1.0
  P  P4  1  0.694503  0.274399  0.058198  1.0
  O  O5  1  0.397203  0.537546  0.452955  1.0
  O  O6  1  0.602797  0.462454  0.952955  1.0
  O  O7  1  0.519806  0.059860  0.534230  1.0
  O  O8  1  0.480194  0.940140  0.034230  1.0
  O  O9  1  0.314024  0.648455  0.732114  1.0
  O  O10  1  0.685976  0.351545  0.232114  1.0
  O  O11  1  0.010744  0.341351  0.013110  1.0
  O  O12  1  0.989256  0.658649  0.513110  1.0
