# generated using pymatgen
data_LaCo5
_symmetry_space_group_name_H-M   'P 1'
_cell_length_a   3.96038818
_cell_length_b   5.02738493
_cell_length_c   5.02267830
_cell_angle_alpha   120.03100102
_cell_angle_beta   90.00000000
_cell_angle_gamma   90.00000000
_symmetry_Int_Tables_number   1
_chemical_formula_structural   LaCo5
_chemical_formula_sum   'La1 Co5'
_cell_volume   86.57851578
_cell_formula_units_Z   1
loop_
 _symmetry_equiv_pos_site_id
 _symmetry_equiv_pos_as_xyz
  1  'x, y, z'
loop_
 _atom_site_type_symbol
 _atom_site_label
 _atom_site_symmetry_multiplicity
 _atom_site_fract_x
 _atom_site_fract_y
 _atom_site_fract_z
 _atom_site_occupancy
  La  La1  1  0.000000  0.999993  0.000000  1.0
  Co  Co2  1  0.000000  0.333163  0.666500  1.0
  Co  Co3  1  0.000000  0.666663  0.333500  1.0
  Co  Co4  1  0.500000  0.500038  0.000000  1.0
  Co  Co5  1  0.500000  0.500027  0.500011  1.0
  Co  Co6  1  0.500000  0.000016  0.499989  1.0
