# generated using pymatgen
data_ZrSi2
_symmetry_space_group_name_H-M   'P 1'
_cell_length_a   3.68008761
_cell_length_b   3.72069311
_cell_length_c   7.60747545
_cell_angle_alpha   104.15476353
_cell_angle_beta   90.00000000
_cell_angle_gamma   90.00000000
_symmetry_Int_Tables_number   1
_chemical_formula_structural   ZrSi2
_chemical_formula_sum   'Zr2 Si4'
_cell_volume   101.00259194
_cell_formula_units_Z   2
loop_
 _symmetry_equiv_pos_site_id
 _symmetry_equiv_pos_as_xyz
  1  'x, y, z'
loop_
 _atom_site_type_symbol
 _atom_site_label
 _atom_site_symmetry_multiplicity
 _atom_site_fract_x
 _atom_site_fract_y
 _atom_site_fract_z
 _atom_site_occupancy
  Zr  Zr1  1  0.750000  0.104929  0.209857  1.0
  Zr  Zr2  1  0.250000  0.895071  0.790143  1.0
  Si  Si3  1  0.750000  0.446455  0.892909  1.0
  Si  Si4  1  0.250000  0.553545  0.107091  1.0
  Si  Si5  1  0.750000  0.749739  0.499479  1.0
  Si  Si6  1  0.250000  0.250261  0.500521  1.0
