# generated using pymatgen
data_USiSe
_symmetry_space_group_name_H-M   'P 1'
_cell_length_a   3.88419098
_cell_length_b   3.88419098
_cell_length_c   8.73914365
_cell_angle_alpha   102.84001195
_cell_angle_beta   102.84001195
_cell_angle_gamma   90.00000000
_symmetry_Int_Tables_number   1
_chemical_formula_structural   USiSe
_chemical_formula_sum   'U2 Si2 Se2'
_cell_volume   125.16629755
_cell_formula_units_Z   2
loop_
 _symmetry_equiv_pos_site_id
 _symmetry_equiv_pos_as_xyz
  1  'x, y, z'
loop_
 _atom_site_type_symbol
 _atom_site_label
 _atom_site_symmetry_multiplicity
 _atom_site_fract_x
 _atom_site_fract_y
 _atom_site_fract_z
 _atom_site_occupancy
  U  U1  1  0.867916  0.867916  0.735832  1.0
  U  U2  1  0.132084  0.132084  0.264168  1.0
  Si  Si3  1  0.500000  0.000000  0.000000  1.0
  Si  Si4  1  0.000000  0.500000  0.000000  1.0
  Se  Se5  1  0.684081  0.684081  0.368162  1.0
  Se  Se6  1  0.315919  0.315919  0.631838  1.0
