# generated using pymatgen
data_ThGeS
_symmetry_space_group_name_H-M   'P 1'
_cell_length_a   3.96862906
_cell_length_b   3.96862906
_cell_length_c   9.03060851
_cell_angle_alpha   102.69329815
_cell_angle_beta   102.69329811
_cell_angle_gamma   89.99999995
_symmetry_Int_Tables_number   1
_chemical_formula_structural   ThGeS
_chemical_formula_sum   'Th2 Ge2 S2'
_cell_volume   135.19064336
_cell_formula_units_Z   2
loop_
 _symmetry_equiv_pos_site_id
 _symmetry_equiv_pos_as_xyz
  1  'x, y, z'
loop_
 _atom_site_type_symbol
 _atom_site_label
 _atom_site_symmetry_multiplicity
 _atom_site_fract_x
 _atom_site_fract_y
 _atom_site_fract_z
 _atom_site_occupancy
  Th  Th1  1  0.859568  0.859568  0.719136  1.0
  Th  Th2  1  0.140432  0.140432  0.280864  1.0
  Ge  Ge3  1  0.500000  0.000000  0.000000  1.0
  Ge  Ge4  1  0.000000  0.500000  0.000000  1.0
  S  S5  1  0.687048  0.687048  0.374096  1.0
  S  S6  1  0.312952  0.312952  0.625904  1.0
