# generated using pymatgen
data_NiP2
_symmetry_space_group_name_H-M   'P 1'
_cell_length_a   4.28806563
_cell_length_b   4.28806563
_cell_length_c   5.63444687
_cell_angle_alpha   68.34816291
_cell_angle_beta   68.34816291
_cell_angle_gamma   81.79606471
_symmetry_Int_Tables_number   1
_chemical_formula_structural   NiP2
_chemical_formula_sum   'Ni2 P4'
_cell_volume   89.49673247
_cell_formula_units_Z   2
loop_
 _symmetry_equiv_pos_site_id
 _symmetry_equiv_pos_as_xyz
  1  'x, y, z'
loop_
 _atom_site_type_symbol
 _atom_site_label
 _atom_site_symmetry_multiplicity
 _atom_site_fract_x
 _atom_site_fract_y
 _atom_site_fract_z
 _atom_site_occupancy
  Ni  Ni1  1  0.500000  0.500000  0.500000  1.0
  Ni  Ni2  1  0.000000  0.000000  0.000000  1.0
  P  P3  1  0.918671  0.189203  0.333490  1.0
  P  P4  1  0.310797  0.581329  0.166510  1.0
  P  P5  1  0.081329  0.810797  0.666510  1.0
  P  P6  1  0.689203  0.418671  0.833490  1.0
