# generated using pymatgen
data_DyMgSn
_symmetry_space_group_name_H-M   'P 1'
_cell_length_a   4.40071494
_cell_length_b   4.40071494
_cell_length_c   8.54557179
_cell_angle_alpha   104.92088949
_cell_angle_beta   104.92088949
_cell_angle_gamma   90.00000000
_symmetry_Int_Tables_number   1
_chemical_formula_structural   DyMgSn
_chemical_formula_sum   'Dy2 Mg2 Sn2'
_cell_volume   154.13384839
_cell_formula_units_Z   2
loop_
 _symmetry_equiv_pos_site_id
 _symmetry_equiv_pos_as_xyz
  1  'x, y, z'
loop_
 _atom_site_type_symbol
 _atom_site_label
 _atom_site_symmetry_multiplicity
 _atom_site_fract_x
 _atom_site_fract_y
 _atom_site_fract_z
 _atom_site_occupancy
  Dy  Dy1  1  0.666975  0.666975  0.333952  1.0
  Dy  Dy2  1  0.333025  0.333025  0.666048  1.0
  Mg  Mg3  1  0.500000  0.000000  0.000000  1.0
  Mg  Mg4  1  0.000000  0.500000  0.000000  1.0
  Sn  Sn5  1  0.135730  0.135730  0.271460  1.0
  Sn  Sn6  1  0.864271  0.864271  0.728541  1.0
