# generated using pymatgen
data_CaN6
_symmetry_space_group_name_H-M   'P 1'
_cell_length_a   5.98593424
_cell_length_b   6.32318917
_cell_length_c   6.49727316
_cell_angle_alpha   77.40604886
_cell_angle_beta   62.57095879
_cell_angle_gamma   61.74920454
_symmetry_Int_Tables_number   1
_chemical_formula_structural   CaN6
_chemical_formula_sum   'Ca2 N12'
_cell_volume   192.27664615
_cell_formula_units_Z   2
loop_
 _symmetry_equiv_pos_site_id
 _symmetry_equiv_pos_as_xyz
  1  'x, y, z'
loop_
 _atom_site_type_symbol
 _atom_site_label
 _atom_site_symmetry_multiplicity
 _atom_site_fract_x
 _atom_site_fract_y
 _atom_site_fract_z
 _atom_site_occupancy
  Ca  Ca1  1  0.625000  0.750000  0.750000  1.0
  Ca  Ca2  1  0.375000  0.250000  0.250000  1.0
  N  N3  1  0.838004  0.382755  0.499621  1.0
  N  N4  1  0.220380  0.117245  0.000379  1.0
  N  N5  1  0.001372  0.250000  0.997256  1.0
  N  N6  1  0.748628  0.250000  0.502744  1.0
  N  N7  1  0.998628  0.750000  0.002744  1.0
  N  N8  1  0.251372  0.750000  0.497256  1.0
  N  N9  1  0.337625  0.882755  0.500379  1.0
  N  N10  1  0.220759  0.617245  0.999621  1.0
  N  N11  1  0.779620  0.882755  0.999621  1.0
  N  N12  1  0.161996  0.617245  0.500379  1.0
  N  N13  1  0.662375  0.117245  0.499621  1.0
  N  N14  1  0.779241  0.382755  0.000379  1.0
