# generated using pymatgen
data_Mn3Ir
_symmetry_space_group_name_H-M   'P 1'
_cell_length_a   5.17428108
_cell_length_b   5.17361413
_cell_length_c   4.05103317
_cell_angle_alpha   90.00000000
_cell_angle_beta   90.00000000
_cell_angle_gamma   119.99959526
_symmetry_Int_Tables_number   1
_chemical_formula_structural   Mn3Ir
_chemical_formula_sum   'Mn6 Ir2'
_cell_volume   93.91657653
_cell_formula_units_Z   2
loop_
 _symmetry_equiv_pos_site_id
 _symmetry_equiv_pos_as_xyz
  1  'x, y, z'
loop_
 _atom_site_type_symbol
 _atom_site_label
 _atom_site_symmetry_multiplicity
 _atom_site_fract_x
 _atom_site_fract_y
 _atom_site_fract_z
 _atom_site_occupancy
  Mn  Mn1  1  0.156602  0.313205  0.250000  1.0
  Mn  Mn2  1  0.686760  0.843406  0.250000  1.0
  Mn  Mn3  1  0.156647  0.843401  0.250000  1.0
  Mn  Mn4  1  0.843281  0.686629  0.750000  1.0
  Mn  Mn5  1  0.313412  0.156713  0.750000  1.0
  Mn  Mn6  1  0.843284  0.156668  0.750000  1.0
  Ir  Ir7  1  0.666669  0.333311  0.250000  1.0
  Ir  Ir8  1  0.333344  0.666666  0.750000  1.0
