# generated using pymatgen
data_Fe3Re
_symmetry_space_group_name_H-M   'P 1'
_cell_length_a   5.09429545
_cell_length_b   5.09465481
_cell_length_c   4.05967741
_cell_angle_alpha   90.00159915
_cell_angle_beta   89.99838021
_cell_angle_gamma   119.99943193
_symmetry_Int_Tables_number   1
_chemical_formula_structural   Fe3Re
_chemical_formula_sum   'Fe6 Re2'
_cell_volume   91.24803795
_cell_formula_units_Z   2
loop_
 _symmetry_equiv_pos_site_id
 _symmetry_equiv_pos_as_xyz
  1  'x, y, z'
loop_
 _atom_site_type_symbol
 _atom_site_label
 _atom_site_symmetry_multiplicity
 _atom_site_fract_x
 _atom_site_fract_y
 _atom_site_fract_z
 _atom_site_occupancy
  Fe  Fe1  1  0.162576  0.325182  0.250011  1.0
  Fe  Fe2  1  0.674842  0.837426  0.250008  1.0
  Fe  Fe3  1  0.162579  0.837405  0.250002  1.0
  Fe  Fe4  1  0.837410  0.674836  0.749987  1.0
  Fe  Fe5  1  0.325165  0.162579  0.749991  1.0
  Fe  Fe6  1  0.837409  0.162568  0.749998  1.0
  Re  Re7  1  0.333314  0.666642  0.749981  1.0
  Re  Re8  1  0.666703  0.333361  0.250019  1.0
