# generated using pymatgen
data_Ca2CoN2
_symmetry_space_group_name_H-M   'P 1'
_cell_length_a   4.94788884
_cell_length_b   5.93747058
_cell_length_c   6.46922101
_cell_angle_alpha   65.33003748
_cell_angle_beta   67.51648360
_cell_angle_gamma   65.37570262
_symmetry_Int_Tables_number   1
_chemical_formula_structural   Ca2CoN2
_chemical_formula_sum   'Ca4 Co2 N4'
_cell_volume   151.91661743
_cell_formula_units_Z   2
loop_
 _symmetry_equiv_pos_site_id
 _symmetry_equiv_pos_as_xyz
  1  'x, y, z'
loop_
 _atom_site_type_symbol
 _atom_site_label
 _atom_site_symmetry_multiplicity
 _atom_site_fract_x
 _atom_site_fract_y
 _atom_site_fract_z
 _atom_site_occupancy
  Ca  Ca1  1  0.681609  0.237216  0.399568  1.0
  Ca  Ca2  1  0.318391  0.762784  0.600432  1.0
  Ca  Ca3  1  0.041664  0.689265  0.227405  1.0
  Ca  Ca4  1  0.958336  0.310735  0.772595  1.0
  Co  Co5  1  0.376461  0.124363  0.122717  1.0
  Co  Co6  1  0.623539  0.875637  0.877283  1.0
  N  N7  1  0.188879  0.238122  0.384121  1.0
  N  N8  1  0.811121  0.761878  0.615879  1.0
  N  N9  1  0.478949  0.239147  0.802955  1.0
  N  N10  1  0.521051  0.760853  0.197045  1.0
