# generated using pymatgen
data_Cu3Si
_symmetry_space_group_name_H-M   'P 1'
_cell_length_a   5.20797419
_cell_length_b   5.20805450
_cell_length_c   4.07809448
_cell_angle_alpha   89.91405265
_cell_angle_beta   90.09548645
_cell_angle_gamma   119.97161218
_symmetry_Int_Tables_number   1
_chemical_formula_structural   Cu3Si
_chemical_formula_sum   'Cu6 Si2'
_cell_volume   95.81989424
_cell_formula_units_Z   2
loop_
 _symmetry_equiv_pos_site_id
 _symmetry_equiv_pos_as_xyz
  1  'x, y, z'
loop_
 _atom_site_type_symbol
 _atom_site_label
 _atom_site_symmetry_multiplicity
 _atom_site_fract_x
 _atom_site_fract_y
 _atom_site_fract_z
 _atom_site_occupancy
  Cu  Cu1  1  0.168046  0.336081  0.250019  1.0
  Cu  Cu2  1  0.663920  0.831953  0.250008  1.0
  Cu  Cu3  1  0.168014  0.831987  0.249981  1.0
  Cu  Cu4  1  0.831882  0.663772  0.749979  1.0
  Cu  Cu5  1  0.336234  0.168120  0.749990  1.0
  Cu  Cu6  1  0.831903  0.168097  0.750018  1.0
  Si  Si7  1  0.333364  0.666617  0.749984  1.0
  Si  Si8  1  0.666633  0.333367  0.250018  1.0
