# generated using pymatgen
data_V2H
_symmetry_space_group_name_H-M   'P 1'
_cell_length_a   2.66696921
_cell_length_b   2.66696921
_cell_length_c   4.44359873
_cell_angle_alpha   83.90276846
_cell_angle_beta   83.90276846
_cell_angle_gamma   67.19044859
_symmetry_Int_Tables_number   1
_chemical_formula_structural   V2H
_chemical_formula_sum   'V2 H1'
_cell_volume   28.89661612
_cell_formula_units_Z   1
loop_
 _symmetry_equiv_pos_site_id
 _symmetry_equiv_pos_as_xyz
  1  'x, y, z'
loop_
 _atom_site_type_symbol
 _atom_site_label
 _atom_site_symmetry_multiplicity
 _atom_site_fract_x
 _atom_site_fract_y
 _atom_site_fract_z
 _atom_site_occupancy
  V  V1  1  0.281061  0.281061  0.779131  1.0
  V  V2  1  0.740681  0.740681  0.243024  1.0
  H  H3  1  0.011458  0.011458  0.510745  1.0
