# generated using pymatgen
data_KCrO2
_symmetry_space_group_name_H-M   'P 1'
_cell_length_a   6.27091592
_cell_length_b   6.27091599
_cell_length_c   6.27091668
_cell_angle_alpha   28.84478576
_cell_angle_beta   28.84478454
_cell_angle_gamma   28.84478666
_symmetry_Int_Tables_number   1
_chemical_formula_structural   KCrO2
_chemical_formula_sum   'K1 Cr1 O2'
_cell_volume   50.75437160
_cell_formula_units_Z   1
loop_
 _symmetry_equiv_pos_site_id
 _symmetry_equiv_pos_as_xyz
  1  'x, y, z'
loop_
 _atom_site_type_symbol
 _atom_site_label
 _atom_site_symmetry_multiplicity
 _atom_site_fract_x
 _atom_site_fract_y
 _atom_site_fract_z
 _atom_site_occupancy
  K  K1  1  0.000004  0.000004  0.000004  1.0
  Cr  Cr2  1  0.500001  0.500001  0.500001  1.0
  O  O3  1  0.776292  0.776292  0.776292  1.0
  O  O4  1  0.223704  0.223704  0.223704  1.0
