# generated using pymatgen
data_AlCuO2
_symmetry_space_group_name_H-M   'P 1'
_cell_length_a   2.87874409
_cell_length_b   2.87874409
_cell_length_c   5.93185855
_cell_angle_alpha   75.95693295
_cell_angle_beta   75.95693295
_cell_angle_gamma   59.99999416
_symmetry_Int_Tables_number   1
_chemical_formula_structural   AlCuO2
_chemical_formula_sum   'Al1 Cu1 O2'
_cell_volume   40.86709253
_cell_formula_units_Z   1
loop_
 _symmetry_equiv_pos_site_id
 _symmetry_equiv_pos_as_xyz
  1  'x, y, z'
loop_
 _atom_site_type_symbol
 _atom_site_label
 _atom_site_symmetry_multiplicity
 _atom_site_fract_x
 _atom_site_fract_y
 _atom_site_fract_z
 _atom_site_occupancy
  Al  Al1  1  0.500000  0.500000  0.500000  1.0
  Cu  Cu2  1  0.000000  0.000000  0.000000  1.0
  O  O3  1  0.110043  0.110043  0.669871  1.0
  O  O4  1  0.889957  0.889957  0.330129  1.0
