# generated using pymatgen
data_Bi2Se3
_symmetry_space_group_name_H-M   'P 1'
_cell_length_a   4.18976635
_cell_length_b   4.18976635
_cell_length_c   10.42166882
_cell_angle_alpha   78.40384297
_cell_angle_beta   78.40384297
_cell_angle_gamma   59.99999958
_symmetry_Int_Tables_number   1
_chemical_formula_structural   Bi2Se3
_chemical_formula_sum   'Bi2 Se3'
_cell_volume   154.10682373
_cell_formula_units_Z   1
loop_
 _symmetry_equiv_pos_site_id
 _symmetry_equiv_pos_as_xyz
  1  'x, y, z'
loop_
 _atom_site_type_symbol
 _atom_site_label
 _atom_site_symmetry_multiplicity
 _atom_site_fract_x
 _atom_site_fract_y
 _atom_site_fract_z
 _atom_site_occupancy
  Bi  Bi1  1  0.397340  0.397340  0.807979  1.0
  Bi  Bi2  1  0.602660  0.602660  0.192021  1.0
  Se  Se3  1  0.000000  0.000000  0.000000  1.0
  Se  Se4  1  0.782147  0.782147  0.653558  1.0
  Se  Se5  1  0.217853  0.217853  0.346442  1.0
