# generated using pymatgen
data_SrTcN3
_symmetry_space_group_name_H-M   'P 1'
_cell_length_a   3.77278077
_cell_length_b   6.55100000
_cell_length_c   6.70894561
_cell_angle_alpha   104.36370313
_cell_angle_beta   90.00000626
_cell_angle_gamma   106.73553131
_symmetry_Int_Tables_number   1
_chemical_formula_structural   SrTcN3
_chemical_formula_sum   'Sr2 Tc2 N6'
_cell_volume   153.37115971
_cell_formula_units_Z   2
loop_
 _symmetry_equiv_pos_site_id
 _symmetry_equiv_pos_as_xyz
  1  'x, y, z'
loop_
 _atom_site_type_symbol
 _atom_site_label
 _atom_site_symmetry_multiplicity
 _atom_site_fract_x
 _atom_site_fract_y
 _atom_site_fract_z
 _atom_site_occupancy
  Sr  Sr1  1  0.383920  0.767840  0.670140  1.0
  Sr  Sr2  1  0.616080  0.232160  0.329860  1.0
  Tc  Tc3  1  0.842740  0.685480  0.140600  1.0
  Tc  Tc4  1  0.157260  0.314520  0.859400  1.0
  N  N5  1  0.681920  0.363840  0.987770  1.0
  N  N6  1  0.993200  0.986400  0.091440  1.0
  N  N7  1  0.006800  0.013600  0.908560  1.0
  N  N8  1  0.843680  0.687360  0.404200  1.0
  N  N9  1  0.318080  0.636160  0.012230  1.0
  N  N10  1  0.156320  0.312640  0.595800  1.0
