# generated using pymatgen
data_MoO2
_symmetry_space_group_name_H-M   'P 1'
_cell_length_a   4.75570521
_cell_length_b   5.74110241
_cell_length_c   6.48911328
_cell_angle_alpha   124.38896089
_cell_angle_beta   90.00000000
_cell_angle_gamma   90.00000000
_symmetry_Int_Tables_number   1
_chemical_formula_structural   MoO2
_chemical_formula_sum   'Mo4 O8'
_cell_volume   146.20645580
_cell_formula_units_Z   4
loop_
 _symmetry_equiv_pos_site_id
 _symmetry_equiv_pos_as_xyz
  1  'x, y, z'
loop_
 _atom_site_type_symbol
 _atom_site_label
 _atom_site_symmetry_multiplicity
 _atom_site_fract_x
 _atom_site_fract_y
 _atom_site_fract_z
 _atom_site_occupancy
  Mo  Mo1  1  0.009940  0.749958  0.999949  1.0
  Mo  Mo2  1  0.509940  0.250042  0.000051  1.0
  Mo  Mo3  1  0.510063  0.249916  0.499939  1.0
  Mo  Mo4  1  0.010063  0.750084  0.500061  1.0
  O  O5  1  0.814258  0.548463  0.649121  1.0
  O  O6  1  0.706070  0.048822  0.649410  1.0
  O  O7  1  0.814229  0.548429  0.149297  1.0
  O  O8  1  0.705440  0.048085  0.149024  1.0
  O  O9  1  0.314258  0.451537  0.350879  1.0
  O  O10  1  0.206070  0.951178  0.350590  1.0
  O  O11  1  0.205440  0.951915  0.850976  1.0
  O  O12  1  0.314229  0.451571  0.850704  1.0
