# generated using pymatgen
data_Cu2S
_symmetry_space_group_name_H-M   'P 1'
_cell_length_a   5.04328951
_cell_length_b   5.04328934
_cell_length_c   5.04328957
_cell_angle_alpha   98.72587881
_cell_angle_beta   98.72586898
_cell_angle_gamma   134.15370545
_symmetry_Int_Tables_number   1
_chemical_formula_structural   Cu2S
_chemical_formula_sum   'Cu4 S2'
_cell_volume   84.76577816
_cell_formula_units_Z   2
loop_
 _symmetry_equiv_pos_site_id
 _symmetry_equiv_pos_as_xyz
  1  'x, y, z'
loop_
 _atom_site_type_symbol
 _atom_site_label
 _atom_site_symmetry_multiplicity
 _atom_site_fract_x
 _atom_site_fract_y
 _atom_site_fract_z
 _atom_site_occupancy
  Cu  Cu1  1  0.163717  0.750000  0.913717  1.0
  Cu  Cu2  1  0.250000  0.663717  0.413717  1.0
  Cu  Cu3  1  0.336283  0.250000  0.586283  1.0
  Cu  Cu4  1  0.750000  0.836283  0.086283  1.0
  S  S5  1  0.625000  0.375000  0.250000  1.0
  S  S6  1  0.875000  0.125000  0.750000  1.0
