# generated using pymatgen
data_SmIO
_symmetry_space_group_name_H-M   'P 1'
_cell_length_a   4.02526532
_cell_length_b   11.21875096
_cell_length_c   4.02526497
_cell_angle_alpha   100.33475621
_cell_angle_beta   59.99999712
_cell_angle_gamma   100.33475499
_symmetry_Int_Tables_number   1
_chemical_formula_structural   SmIO
_chemical_formula_sum   'Sm2 I2 O2'
_cell_volume   154.00685306
_cell_formula_units_Z   2
loop_
 _symmetry_equiv_pos_site_id
 _symmetry_equiv_pos_as_xyz
  1  'x, y, z'
loop_
 _atom_site_type_symbol
 _atom_site_label
 _atom_site_symmetry_multiplicity
 _atom_site_fract_x
 _atom_site_fract_y
 _atom_site_fract_z
 _atom_site_occupancy
  Sm  Sm1  1  0.210621  0.631863  0.210621  1.0
  Sm  Sm2  1  0.789379  0.368137  0.789379  1.0
  I  I3  1  0.611236  0.833709  0.611236  1.0
  I  I4  1  0.388764  0.166291  0.388764  1.0
  O  O5  1  0.139933  0.419800  0.139933  1.0
  O  O6  1  0.860067  0.580200  0.860067  1.0
