# generated using pymatgen
data_CuSe2Cl
_symmetry_space_group_name_H-M   'P 1'
_cell_length_a   4.96140466
_cell_length_b   7.75839857
_cell_length_c   11.31477236
_cell_angle_alpha   104.10338318
_cell_angle_beta   90.00000000
_cell_angle_gamma   90.00000000
_symmetry_Int_Tables_number   1
_chemical_formula_structural   CuSe2Cl
_chemical_formula_sum   'Cu4 Se8 Cl4'
_cell_volume   422.40645287
_cell_formula_units_Z   4
loop_
 _symmetry_equiv_pos_site_id
 _symmetry_equiv_pos_as_xyz
  1  'x, y, z'
loop_
 _atom_site_type_symbol
 _atom_site_label
 _atom_site_symmetry_multiplicity
 _atom_site_fract_x
 _atom_site_fract_y
 _atom_site_fract_z
 _atom_site_occupancy
  Cu  Cu1  1  0.640408  0.072477  0.248050  1.0
  Cu  Cu2  1  0.140408  0.427523  0.251950  1.0
  Cu  Cu3  1  0.359592  0.927523  0.751950  1.0
  Cu  Cu4  1  0.859592  0.572477  0.748050  1.0
  Se  Se5  1  0.531005  0.355408  0.658386  1.0
  Se  Se6  1  0.031005  0.144592  0.841614  1.0
  Se  Se7  1  0.468995  0.644592  0.341614  1.0
  Se  Se8  1  0.968995  0.855408  0.158386  1.0
  Se  Se9  1  0.689959  0.078506  0.661753  1.0
  Se  Se10  1  0.189959  0.421494  0.838247  1.0
  Se  Se11  1  0.310041  0.921494  0.338247  1.0
  Se  Se12  1  0.810041  0.578506  0.161753  1.0
  Cl  Cl13  1  0.389976  0.207345  0.123339  1.0
  Cl  Cl14  1  0.889976  0.292655  0.376661  1.0
  Cl  Cl15  1  0.610024  0.792655  0.876661  1.0
  Cl  Cl16  1  0.110024  0.707345  0.623339  1.0
