# generated using pymatgen
data_OsPbO3
_symmetry_space_group_name_H-M   'P 1'
_cell_length_a   7.36556197
_cell_length_b   7.36601315
_cell_length_c   7.36688279
_cell_angle_alpha   60.02422118
_cell_angle_beta   60.01495462
_cell_angle_gamma   60.02208795
_symmetry_Int_Tables_number   1
_chemical_formula_structural   OsPbO3
_chemical_formula_sum   'Os4 Pb4 O12'
_cell_volume   282.75359795
_cell_formula_units_Z   4
loop_
 _symmetry_equiv_pos_site_id
 _symmetry_equiv_pos_as_xyz
  1  'x, y, z'
loop_
 _atom_site_type_symbol
 _atom_site_label
 _atom_site_symmetry_multiplicity
 _atom_site_fract_x
 _atom_site_fract_y
 _atom_site_fract_z
 _atom_site_occupancy
  Os  Os1  1  0.000067  0.500009  0.000000  1.0
  Os  Os2  1  0.500001  0.000085  0.000012  1.0
  Os  Os3  1  0.999984  0.000028  0.499978  1.0
  Os  Os4  1  0.999882  0.000043  0.000048  1.0
  Pb  Pb5  1  0.500112  0.999956  0.499948  1.0
  Pb  Pb6  1  0.000056  0.500009  0.500003  1.0
  Pb  Pb7  1  0.500010  0.500028  0.499999  1.0
  Pb  Pb8  1  0.500011  0.499923  0.000010  1.0
  O  O9  1  0.681078  0.680941  0.069176  1.0
  O  O10  1  0.069240  0.069374  0.680866  1.0
  O  O11  1  0.681086  0.069196  0.680883  1.0
  O  O12  1  0.069163  0.680998  0.681061  1.0
  O  O13  1  0.930627  0.930634  0.319175  1.0
  O  O14  1  0.319165  0.930658  0.930613  1.0
  O  O15  1  0.069372  0.680809  0.069326  1.0
  O  O16  1  0.318936  0.319087  0.930810  1.0
  O  O17  1  0.930685  0.319132  0.930661  1.0
  O  O18  1  0.930858  0.318969  0.318904  1.0
  O  O19  1  0.680806  0.069335  0.069431  1.0
  O  O20  1  0.318860  0.930785  0.319096  1.0
