# generated using pymatgen
data_ZnCdTe2
_symmetry_space_group_name_H-M   'P 1'
_cell_length_a   6.43122845
_cell_length_b   6.43122845
_cell_length_c   7.81632062
_cell_angle_alpha   114.29265358
_cell_angle_beta   114.29265358
_cell_angle_gamma   90.00000000
_symmetry_Int_Tables_number   1
_chemical_formula_structural   ZnCdTe2
_chemical_formula_sum   'Zn2 Cd2 Te4'
_cell_volume   262.93992972
_cell_formula_units_Z   2
loop_
 _symmetry_equiv_pos_site_id
 _symmetry_equiv_pos_as_xyz
  1  'x, y, z'
loop_
 _atom_site_type_symbol
 _atom_site_label
 _atom_site_symmetry_multiplicity
 _atom_site_fract_x
 _atom_site_fract_y
 _atom_site_fract_z
 _atom_site_occupancy
  Zn  Zn1  1  0.000000  0.000000  0.000000  1.0
  Zn  Zn2  1  0.250000  0.750001  0.500001  1.0
  Cd  Cd3  1  0.500001  0.500001  0.000000  1.0
  Cd  Cd4  1  0.750001  0.250000  0.500001  1.0
  Te  Te5  1  0.351586  0.375000  0.250000  1.0
  Te  Te6  1  0.898415  0.875000  0.250000  1.0
  Te  Te7  1  0.624999  0.101586  0.749999  1.0
  Te  Te8  1  0.125000  0.648413  0.749999  1.0
