# generated using pymatgen
data_Na2UO4
_symmetry_space_group_name_H-M   'P 1'
_cell_length_a   3.50104728
_cell_length_b   6.03367579
_cell_length_c   6.03367732
_cell_angle_alpha   111.83490928
_cell_angle_beta   90.00000000
_cell_angle_gamma   90.00000000
_symmetry_Int_Tables_number   1
_chemical_formula_structural   Na2UO4
_chemical_formula_sum   'Na2 U1 O4'
_cell_volume   118.31270293
_cell_formula_units_Z   1
loop_
 _symmetry_equiv_pos_site_id
 _symmetry_equiv_pos_as_xyz
  1  'x, y, z'
loop_
 _atom_site_type_symbol
 _atom_site_label
 _atom_site_symmetry_multiplicity
 _atom_site_fract_x
 _atom_site_fract_y
 _atom_site_fract_z
 _atom_site_occupancy
  Na  Na1  1  0.500000  0.000227  0.500562  1.0
  Na  Na2  1  0.500000  0.499438  0.999773  1.0
  U  U3  1  0.000000  0.999895  0.000105  1.0
  O  O4  1  0.500000  0.192081  0.191958  1.0
  O  O5  1  0.000000  0.804297  0.195703  1.0
  O  O6  1  0.500000  0.808042  0.807919  1.0
  O  O7  1  0.000000  0.196020  0.803980  1.0
