# generated using pymatgen
data_Ni(BMo)2
_symmetry_space_group_name_H-M   'P 1'
_cell_length_a   3.18496024
_cell_length_b   4.52890261
_cell_length_c   4.52890261
_cell_angle_alpha   60.69569251
_cell_angle_beta   69.41319646
_cell_angle_gamma   69.41319635
_symmetry_Int_Tables_number   1
_chemical_formula_structural   Ni(BMo)2
_chemical_formula_sum   'Ni1 B2 Mo2'
_cell_volume   52.02353134
_cell_formula_units_Z   1
loop_
 _symmetry_equiv_pos_site_id
 _symmetry_equiv_pos_as_xyz
  1  'x, y, z'
loop_
 _atom_site_type_symbol
 _atom_site_label
 _atom_site_symmetry_multiplicity
 _atom_site_fract_x
 _atom_site_fract_y
 _atom_site_fract_z
 _atom_site_occupancy
  Ni  Ni1  1  0.000000  0.000000  0.000000  1.0
  B  B2  1  0.500000  0.701538  0.298461  1.0
  B  B3  1  0.500000  0.298461  0.701538  1.0
  Mo  Mo4  1  0.800706  0.699294  0.699294  1.0
  Mo  Mo5  1  0.199294  0.300706  0.300706  1.0
