# generated using pymatgen
data_ZrS
_symmetry_space_group_name_H-M   'P 1'
_cell_length_a   3.58387425
_cell_length_b   3.58387425
_cell_length_c   5.65533655
_cell_angle_alpha   90.00000000
_cell_angle_beta   90.00000000
_cell_angle_gamma   90.00000000
_symmetry_Int_Tables_number   1
_chemical_formula_structural   ZrS
_chemical_formula_sum   'Zr2 S2'
_cell_volume   72.63801719
_cell_formula_units_Z   2
loop_
 _symmetry_equiv_pos_site_id
 _symmetry_equiv_pos_as_xyz
  1  'x, y, z'
loop_
 _atom_site_type_symbol
 _atom_site_label
 _atom_site_symmetry_multiplicity
 _atom_site_fract_x
 _atom_site_fract_y
 _atom_site_fract_z
 _atom_site_occupancy
  Zr  Zr1  1  0.750000  0.750000  0.818057  1.0
  Zr  Zr2  1  0.250000  0.250000  0.181943  1.0
  S  S3  1  0.750000  0.750000  0.308877  1.0
  S  S4  1  0.250000  0.250000  0.691123  1.0
