# generated using pymatgen
data_ZrGa3
_symmetry_space_group_name_H-M   'P 1'
_cell_length_a   3.92276359
_cell_length_b   3.92276360
_cell_length_c   5.36373691
_cell_angle_alpha   111.44909830
_cell_angle_beta   111.44909829
_cell_angle_gamma   90.00000004
_symmetry_Int_Tables_number   1
_chemical_formula_structural   ZrGa3
_chemical_formula_sum   'Zr1 Ga3'
_cell_volume   70.64389274
_cell_formula_units_Z   1
loop_
 _symmetry_equiv_pos_site_id
 _symmetry_equiv_pos_as_xyz
  1  'x, y, z'
loop_
 _atom_site_type_symbol
 _atom_site_label
 _atom_site_symmetry_multiplicity
 _atom_site_fract_x
 _atom_site_fract_y
 _atom_site_fract_z
 _atom_site_occupancy
  Zr  Zr1  1  0.000000  0.000000  0.000000  1.0
  Ga  Ga2  1  0.750000  0.250000  0.500000  1.0
  Ga  Ga3  1  0.500000  0.500000  0.000000  1.0
  Ga  Ga4  1  0.250000  0.750000  0.500000  1.0
