# generated using pymatgen
data_K2Cd(CN)4
_symmetry_space_group_name_H-M   'P 1'
_cell_length_a   9.23698634
_cell_length_b   9.23698633
_cell_length_c   9.23698633
_cell_angle_alpha   59.99999998
_cell_angle_beta   59.99999998
_cell_angle_gamma   60.00000001
_symmetry_Int_Tables_number   1
_chemical_formula_structural   K2Cd(CN)4
_chemical_formula_sum   'K4 Cd2 C8 N8'
_cell_volume   557.28314141
_cell_formula_units_Z   2
loop_
 _symmetry_equiv_pos_site_id
 _symmetry_equiv_pos_as_xyz
  1  'x, y, z'
loop_
 _atom_site_type_symbol
 _atom_site_label
 _atom_site_symmetry_multiplicity
 _atom_site_fract_x
 _atom_site_fract_y
 _atom_site_fract_z
 _atom_site_occupancy
  K  K1  1  0.500000  0.500000  0.500000  1.0
  K  K2  1  0.500000  0.500000  0.000000  1.0
  K  K3  1  0.500000  0.000000  0.500000  1.0
  K  K4  1  0.000000  0.500000  0.500000  1.0
  Cd  Cd5  1  0.875000  0.875000  0.875000  1.0
  Cd  Cd6  1  0.125000  0.125000  0.125000  1.0
  C  C7  1  0.223273  0.830182  0.223273  1.0
  C  C8  1  0.776727  0.776727  0.776727  1.0
  C  C9  1  0.223273  0.223273  0.830182  1.0
  C  C10  1  0.830182  0.223273  0.223273  1.0
  C  C11  1  0.776727  0.169818  0.776727  1.0
  C  C12  1  0.169818  0.776727  0.776727  1.0
  C  C13  1  0.223273  0.223273  0.223273  1.0
  C  C14  1  0.776727  0.776727  0.169818  1.0
  N  N15  1  0.325441  0.724853  0.724853  1.0
  N  N16  1  0.724853  0.325441  0.724853  1.0
  N  N17  1  0.674559  0.275147  0.275147  1.0
  N  N18  1  0.724853  0.724853  0.724853  1.0
  N  N19  1  0.275147  0.674559  0.275147  1.0
  N  N20  1  0.275147  0.275147  0.674559  1.0
  N  N21  1  0.275147  0.275147  0.275147  1.0
  N  N22  1  0.724853  0.724853  0.325441  1.0
