# generated using pymatgen
data_Li3(FeO2)4
_symmetry_space_group_name_H-M   'P 1'
_cell_length_a   5.98807088
_cell_length_b   5.98807038
_cell_length_c   6.00552901
_cell_angle_alpha   60.13371956
_cell_angle_beta   89.93403084
_cell_angle_gamma   119.96136283
_symmetry_Int_Tables_number   1
_chemical_formula_structural   Li3(FeO2)4
_chemical_formula_sum   'Li3 Fe4 O8'
_cell_volume   152.57702851
_cell_formula_units_Z   1
loop_
 _symmetry_equiv_pos_site_id
 _symmetry_equiv_pos_as_xyz
  1  'x, y, z'
loop_
 _atom_site_type_symbol
 _atom_site_label
 _atom_site_symmetry_multiplicity
 _atom_site_fract_x
 _atom_site_fract_y
 _atom_site_fract_z
 _atom_site_occupancy
  Li  Li1  1  0.000000  0.500000  0.500000  1.0
  Li  Li2  1  0.500000  0.500000  0.500000  1.0
  Li  Li3  1  0.500000  0.000000  0.500000  1.0
  Fe  Fe4  1  0.000000  0.500000  0.000000  1.0
  Fe  Fe5  1  0.000000  0.000000  0.000000  1.0
  Fe  Fe6  1  0.500000  0.500000  0.000000  1.0
  Fe  Fe7  1  0.500000  0.000000  0.000000  1.0
  O  O8  1  0.253713  0.987013  0.779454  1.0
  O  O9  1  0.266466  0.533167  0.220546  1.0
  O  O10  1  0.241097  0.481921  0.776983  1.0
  O  O11  1  0.266793  0.012965  0.220242  1.0
  O  O12  1  0.733207  0.987035  0.779758  1.0
  O  O13  1  0.758903  0.518079  0.223017  1.0
  O  O14  1  0.733534  0.466833  0.779454  1.0
  O  O15  1  0.746287  0.012987  0.220546  1.0
