# generated using pymatgen
data_Ti2AlO4
_symmetry_space_group_name_H-M   'P 1'
_cell_length_a   5.92120626
_cell_length_b   5.92120613
_cell_length_c   5.92120645
_cell_angle_alpha   59.86634186
_cell_angle_beta   59.86634723
_cell_angle_gamma   59.86634366
_symmetry_Int_Tables_number   1
_chemical_formula_structural   Ti2AlO4
_chemical_formula_sum   'Ti4 Al2 O8'
_cell_volume   146.35124617
_cell_formula_units_Z   2
loop_
 _symmetry_equiv_pos_site_id
 _symmetry_equiv_pos_as_xyz
  1  'x, y, z'
loop_
 _atom_site_type_symbol
 _atom_site_label
 _atom_site_symmetry_multiplicity
 _atom_site_fract_x
 _atom_site_fract_y
 _atom_site_fract_z
 _atom_site_occupancy
  Ti  Ti1  1  0.000000  0.500000  0.000000  1.0
  Ti  Ti2  1  0.000000  0.000000  0.000000  1.0
  Ti  Ti3  1  0.500000  0.000000  0.000000  1.0
  Ti  Ti4  1  0.000000  0.000000  0.500000  1.0
  Al  Al5  1  0.624797  0.624797  0.624797  1.0
  Al  Al6  1  0.375203  0.375203  0.375203  1.0
  O  O7  1  0.256334  0.747930  0.747930  1.0
  O  O8  1  0.252070  0.252070  0.743666  1.0
  O  O9  1  0.252070  0.743666  0.252070  1.0
  O  O10  1  0.252769  0.252769  0.252769  1.0
  O  O11  1  0.747930  0.747930  0.256334  1.0
  O  O12  1  0.743666  0.252070  0.252070  1.0
  O  O13  1  0.747930  0.256334  0.747930  1.0
  O  O14  1  0.747231  0.747231  0.747231  1.0
