# generated using pymatgen
data_BaSe2
_symmetry_space_group_name_H-M   'P 1'
_cell_length_a   5.02686278
_cell_length_b   5.48575105
_cell_length_c   8.79332984
_cell_angle_alpha   79.57894076
_cell_angle_beta   73.39130130
_cell_angle_gamma   62.73062435
_symmetry_Int_Tables_number   1
_chemical_formula_structural   BaSe2
_chemical_formula_sum   'Ba2 Se4'
_cell_volume   206.18919905
_cell_formula_units_Z   2
loop_
 _symmetry_equiv_pos_site_id
 _symmetry_equiv_pos_as_xyz
  1  'x, y, z'
loop_
 _atom_site_type_symbol
 _atom_site_label
 _atom_site_symmetry_multiplicity
 _atom_site_fract_x
 _atom_site_fract_y
 _atom_site_fract_z
 _atom_site_occupancy
  Ba  Ba1  1  0.127790  0.250000  0.750000  1.0
  Ba  Ba2  1  0.872210  0.750000  0.250000  1.0
  Se  Se3  1  0.471154  0.284231  0.025959  1.0
  Se  Se4  1  0.781344  0.215769  0.474041  1.0
  Se  Se5  1  0.218656  0.784231  0.525959  1.0
  Se  Se6  1  0.528846  0.715769  0.974041  1.0
