# generated using pymatgen
data_La2MgTiO6
_symmetry_space_group_name_H-M   'P 1'
_cell_length_a   5.57473888
_cell_length_b   5.57473853
_cell_length_c   5.57473911
_cell_angle_alpha   60.70339835
_cell_angle_beta   60.70339931
_cell_angle_gamma   60.70340224
_symmetry_Int_Tables_number   1
_chemical_formula_structural   La2MgTiO6
_chemical_formula_sum   'La2 Mg1 Ti1 O6'
_cell_volume   124.45119471
_cell_formula_units_Z   1
loop_
 _symmetry_equiv_pos_site_id
 _symmetry_equiv_pos_as_xyz
  1  'x, y, z'
loop_
 _atom_site_type_symbol
 _atom_site_label
 _atom_site_symmetry_multiplicity
 _atom_site_fract_x
 _atom_site_fract_y
 _atom_site_fract_z
 _atom_site_occupancy
  La  La1  1  0.750394  0.750394  0.750394  1.0
  La  La2  1  0.249606  0.249606  0.249606  1.0
  Mg  Mg3  1  0.500000  0.500000  0.500000  1.0
  Ti  Ti4  1  0.000000  0.000000  0.000000  1.0
  O  O5  1  0.317096  0.759299  0.170066  1.0
  O  O6  1  0.759299  0.170066  0.317096  1.0
  O  O7  1  0.170066  0.317096  0.759299  1.0
  O  O8  1  0.682904  0.240701  0.829934  1.0
  O  O9  1  0.829934  0.682904  0.240701  1.0
  O  O10  1  0.240701  0.829934  0.682904  1.0
