# generated using pymatgen
data_Th(SiRu)2
_symmetry_space_group_name_H-M   'P 1'
_cell_length_a   4.22418532
_cell_length_b   4.22418534
_cell_length_c   5.72460482
_cell_angle_alpha   111.65087191
_cell_angle_beta   111.65087152
_cell_angle_gamma   90.00000338
_symmetry_Int_Tables_number   1
_chemical_formula_structural   Th(SiRu)2
_chemical_formula_sum   'Th1 Si2 Ru2'
_cell_volume   87.14111362
_cell_formula_units_Z   1
loop_
 _symmetry_equiv_pos_site_id
 _symmetry_equiv_pos_as_xyz
  1  'x, y, z'
loop_
 _atom_site_type_symbol
 _atom_site_label
 _atom_site_symmetry_multiplicity
 _atom_site_fract_x
 _atom_site_fract_y
 _atom_site_fract_z
 _atom_site_occupancy
  Th  Th1  1  0.000000  0.000000  0.000000  1.0
  Si  Si2  1  0.632058  0.632058  0.264116  1.0
  Si  Si3  1  0.367942  0.367942  0.735884  1.0
  Ru  Ru4  1  0.750000  0.250000  0.500000  1.0
  Ru  Ru5  1  0.250000  0.750000  0.500000  1.0
