# generated using pymatgen
data_Ce2Mg
_symmetry_space_group_name_H-M   'P 1'
_cell_length_a   6.19594769
_cell_length_b   6.19594769
_cell_length_c   5.63941965
_cell_angle_alpha   90.00000000
_cell_angle_beta   90.00000000
_cell_angle_gamma   90.00000000
_symmetry_Int_Tables_number   1
_chemical_formula_structural   Ce2Mg
_chemical_formula_sum   'Ce4 Mg2'
_cell_volume   216.49601076
_cell_formula_units_Z   2
loop_
 _symmetry_equiv_pos_site_id
 _symmetry_equiv_pos_as_xyz
  1  'x, y, z'
loop_
 _atom_site_type_symbol
 _atom_site_label
 _atom_site_symmetry_multiplicity
 _atom_site_fract_x
 _atom_site_fract_y
 _atom_site_fract_z
 _atom_site_occupancy
  Ce  Ce1  1  0.349628  0.349628  0.000000  1.0
  Ce  Ce2  1  0.650372  0.650372  0.000000  1.0
  Ce  Ce3  1  0.849628  0.150372  0.500000  1.0
  Ce  Ce4  1  0.150372  0.849628  0.500000  1.0
  Mg  Mg5  1  0.000000  0.000000  0.000000  1.0
  Mg  Mg6  1  0.500000  0.500000  0.500000  1.0
