# generated using pymatgen
data_LiMg2
_symmetry_space_group_name_H-M   'P 1'
_cell_length_a   3.46068247
_cell_length_b   5.75648213
_cell_length_c   3.47022205
_cell_angle_alpha   72.43467526
_cell_angle_beta   90.00000012
_cell_angle_gamma   107.49305134
_symmetry_Int_Tables_number   1
_chemical_formula_structural   LiMg2
_chemical_formula_sum   'Li1 Mg2'
_cell_volume   62.54652457
_cell_formula_units_Z   1
loop_
 _symmetry_equiv_pos_site_id
 _symmetry_equiv_pos_as_xyz
  1  'x, y, z'
loop_
 _atom_site_type_symbol
 _atom_site_label
 _atom_site_symmetry_multiplicity
 _atom_site_fract_x
 _atom_site_fract_y
 _atom_site_fract_z
 _atom_site_occupancy
  Li  Li1  1  0.694946  0.389889  0.213703  1.0
  Mg  Mg2  1  0.035885  0.071769  0.871271  1.0
  Mg  Mg3  1  0.353887  0.707775  0.555408  1.0
