# generated using pymatgen
data_MnCu2SnS4
_symmetry_space_group_name_H-M   'P 1'
_cell_length_a   5.50625603
_cell_length_b   5.50625603
_cell_length_c   6.67157959
_cell_angle_alpha   114.37236217
_cell_angle_beta   114.37236217
_cell_angle_gamma   90.00000000
_symmetry_Int_Tables_number   1
_chemical_formula_structural   MnCu2SnS4
_chemical_formula_sum   'Mn1 Cu2 Sn1 S4'
_cell_volume   164.25586978
_cell_formula_units_Z   1
loop_
 _symmetry_equiv_pos_site_id
 _symmetry_equiv_pos_as_xyz
  1  'x, y, z'
loop_
 _atom_site_type_symbol
 _atom_site_label
 _atom_site_symmetry_multiplicity
 _atom_site_fract_x
 _atom_site_fract_y
 _atom_site_fract_z
 _atom_site_occupancy
  Mn  Mn1  1  0.000000  0.000000  0.000000  1.0
  Cu  Cu2  1  0.750000  0.250000  0.500000  1.0
  Cu  Cu3  1  0.250000  0.750000  0.500000  1.0
  Sn  Sn4  1  0.500000  0.500000  0.000000  1.0
  S  S5  1  0.889980  0.889980  0.269178  1.0
  S  S6  1  0.379198  0.379198  0.269178  1.0
  S  S7  1  0.110020  0.620802  0.730822  1.0
  S  S8  1  0.620802  0.110020  0.730822  1.0
