# generated using pymatgen
data_ScCu3
_symmetry_space_group_name_H-M   'P 1'
_cell_length_a   4.56734383
_cell_length_b   4.56734383
_cell_length_c   4.56734383
_cell_angle_alpha   128.83190613
_cell_angle_beta   128.83190613
_cell_angle_gamma   75.28119461
_symmetry_Int_Tables_number   1
_chemical_formula_structural   ScCu3
_chemical_formula_sum   'Sc1 Cu3'
_cell_volume   56.27725097
_cell_formula_units_Z   1
loop_
 _symmetry_equiv_pos_site_id
 _symmetry_equiv_pos_as_xyz
  1  'x, y, z'
loop_
 _atom_site_type_symbol
 _atom_site_label
 _atom_site_symmetry_multiplicity
 _atom_site_fract_x
 _atom_site_fract_y
 _atom_site_fract_z
 _atom_site_occupancy
  Sc  Sc1  1  0.000000  0.000000  0.000000  1.0
  Cu  Cu2  1  0.750000  0.250000  0.500000  1.0
  Cu  Cu3  1  0.250000  0.750000  0.500000  1.0
  Cu  Cu4  1  0.499999  0.499999  0.000000  1.0
