# generated using pymatgen
data_BaMg6Nb
_symmetry_space_group_name_H-M   'P 1'
_cell_length_a   6.75994150
_cell_length_b   9.53077437
_cell_length_c   4.50426793
_cell_angle_alpha   90.00000000
_cell_angle_beta   90.00000000
_cell_angle_gamma   134.82510670
_symmetry_Int_Tables_number   1
_chemical_formula_structural   BaMg6Nb
_chemical_formula_sum   'Ba1 Mg6 Nb1'
_cell_volume   205.82682456
_cell_formula_units_Z   1
loop_
 _symmetry_equiv_pos_site_id
 _symmetry_equiv_pos_as_xyz
  1  'x, y, z'
loop_
 _atom_site_type_symbol
 _atom_site_label
 _atom_site_symmetry_multiplicity
 _atom_site_fract_x
 _atom_site_fract_y
 _atom_site_fract_z
 _atom_site_occupancy
  Ba  Ba1  1  0.249353  0.374676  0.250000  1.0
  Mg  Mg2  1  0.752254  0.377550  0.250000  1.0
  Mg  Mg3  1  0.752254  0.874703  0.250000  1.0
  Mg  Mg4  1  0.249919  0.090412  0.750000  1.0
  Mg  Mg5  1  0.249919  0.659510  0.750000  1.0
  Mg  Mg6  1  0.683184  0.091593  0.750000  1.0
  Mg  Mg7  1  0.815098  0.657550  0.750000  1.0
  Nb  Nb8  1  0.248016  0.874007  0.250000  1.0
