# generated using pymatgen
data_SiHg3
_symmetry_space_group_name_H-M   'P 1'
_cell_length_a   6.99805018
_cell_length_b   6.99804910
_cell_length_c   4.50899821
_cell_angle_alpha   90.00000000
_cell_angle_beta   90.00000000
_cell_angle_gamma   119.99999334
_symmetry_Int_Tables_number   1
_chemical_formula_structural   SiHg3
_chemical_formula_sum   'Si2 Hg6'
_cell_volume   191.23384682
_cell_formula_units_Z   2
loop_
 _symmetry_equiv_pos_site_id
 _symmetry_equiv_pos_as_xyz
  1  'x, y, z'
loop_
 _atom_site_type_symbol
 _atom_site_label
 _atom_site_symmetry_multiplicity
 _atom_site_fract_x
 _atom_site_fract_y
 _atom_site_fract_z
 _atom_site_occupancy
  Si  Si1  1  0.333334  0.666668  0.749998  1.0
  Si  Si2  1  0.666667  0.333333  0.249999  1.0
  Hg  Hg3  1  0.176257  0.352514  0.249999  1.0
  Hg  Hg4  1  0.647485  0.823742  0.249999  1.0
  Hg  Hg5  1  0.176258  0.823742  0.249999  1.0
  Hg  Hg6  1  0.823743  0.647486  0.749998  1.0
  Hg  Hg7  1  0.352514  0.176257  0.749998  1.0
  Hg  Hg8  1  0.823743  0.176257  0.749998  1.0
