# generated using pymatgen
data_NaCuO2
_symmetry_space_group_name_H-M   'P 1'
_cell_length_a   5.55500232
_cell_length_b   5.55500184
_cell_length_c   5.55500238
_cell_angle_alpha   31.75989218
_cell_angle_beta   31.75989938
_cell_angle_gamma   31.75989936
_symmetry_Int_Tables_number   1
_chemical_formula_structural   NaCuO2
_chemical_formula_sum   'Na1 Cu1 O2'
_cell_volume   42.18039296
_cell_formula_units_Z   1
loop_
 _symmetry_equiv_pos_site_id
 _symmetry_equiv_pos_as_xyz
  1  'x, y, z'
loop_
 _atom_site_type_symbol
 _atom_site_label
 _atom_site_symmetry_multiplicity
 _atom_site_fract_x
 _atom_site_fract_y
 _atom_site_fract_z
 _atom_site_occupancy
  Na  Na1  1  0.500000  0.500000  0.500000  1.0
  Cu  Cu2  1  0.000000  0.000000  0.000000  1.0
  O  O3  1  0.266574  0.266574  0.266574  1.0
  O  O4  1  0.733426  0.733426  0.733426  1.0
