# generated using pymatgen
data_Nd2Al
_symmetry_space_group_name_H-M   'P 1'
_cell_length_a   6.36081303
_cell_length_b   6.36081360
_cell_length_c   6.36081303
_cell_angle_alpha   60.00000291
_cell_angle_beta   59.99999995
_cell_angle_gamma   59.99999887
_symmetry_Int_Tables_number   1
_chemical_formula_structural   Nd2Al
_chemical_formula_sum   'Nd4 Al2'
_cell_volume   181.97969677
_cell_formula_units_Z   2
loop_
 _symmetry_equiv_pos_site_id
 _symmetry_equiv_pos_as_xyz
  1  'x, y, z'
loop_
 _atom_site_type_symbol
 _atom_site_label
 _atom_site_symmetry_multiplicity
 _atom_site_fract_x
 _atom_site_fract_y
 _atom_site_fract_z
 _atom_site_occupancy
  Nd  Nd1  1  0.500000  0.500000  0.000000  1.0
  Nd  Nd2  1  0.500000  0.000000  0.500000  1.0
  Nd  Nd3  1  0.500000  0.500000  0.500000  1.0
  Nd  Nd4  1  0.000000  0.500000  0.500000  1.0
  Al  Al5  1  0.125000  0.125000  0.125000  1.0
  Al  Al6  1  0.875000  0.875000  0.875000  1.0
