# generated using pymatgen
data_UP
_symmetry_space_group_name_H-M   'P 1'
_cell_length_a   5.56413440
_cell_length_b   5.56413441
_cell_length_c   5.56413440
_cell_angle_alpha   89.73292660
_cell_angle_beta   89.73292660
_cell_angle_gamma   89.73292660
_symmetry_Int_Tables_number   1
_chemical_formula_structural   UP
_chemical_formula_sum   'U4 P4'
_cell_volume   172.25773210
_cell_formula_units_Z   4
loop_
 _symmetry_equiv_pos_site_id
 _symmetry_equiv_pos_as_xyz
  1  'x, y, z'
loop_
 _atom_site_type_symbol
 _atom_site_label
 _atom_site_symmetry_multiplicity
 _atom_site_fract_x
 _atom_site_fract_y
 _atom_site_fract_z
 _atom_site_occupancy
  U  U1  1  0.500000  0.000000  0.500000  1.0
  U  U2  1  0.000000  0.500000  0.500000  1.0
  U  U3  1  0.500000  0.500000  0.000000  1.0
  U  U4  1  0.000000  0.000000  0.000000  1.0
  P  P5  1  0.000000  0.500000  0.000000  1.0
  P  P6  1  0.500000  0.000000  0.000000  1.0
  P  P7  1  0.000000  0.000000  0.500000  1.0
  P  P8  1  0.500000  0.500000  0.500000  1.0
