# generated using pymatgen
data_Dy2MgGe2
_symmetry_space_group_name_H-M   'P 1'
_cell_length_a   7.26595169
_cell_length_b   7.26595169
_cell_length_c   4.25242863
_cell_angle_alpha   90.00000000
_cell_angle_beta   90.00000000
_cell_angle_gamma   90.00000000
_symmetry_Int_Tables_number   1
_chemical_formula_structural   Dy2MgGe2
_chemical_formula_sum   'Dy4 Mg2 Ge4'
_cell_volume   224.50294656
_cell_formula_units_Z   2
loop_
 _symmetry_equiv_pos_site_id
 _symmetry_equiv_pos_as_xyz
  1  'x, y, z'
loop_
 _atom_site_type_symbol
 _atom_site_label
 _atom_site_symmetry_multiplicity
 _atom_site_fract_x
 _atom_site_fract_y
 _atom_site_fract_z
 _atom_site_occupancy
  Dy  Dy1  1  0.322762  0.177238  0.499999  1.0
  Dy  Dy2  1  0.822762  0.322762  0.499999  1.0
  Dy  Dy3  1  0.177238  0.677238  0.499999  1.0
  Dy  Dy4  1  0.677238  0.822762  0.499999  1.0
  Mg  Mg5  1  0.000000  0.000000  0.000000  1.0
  Mg  Mg6  1  0.500000  0.500000  0.000000  1.0
  Ge  Ge7  1  0.623554  0.123554  0.000000  1.0
  Ge  Ge8  1  0.123554  0.376446  0.000000  1.0
  Ge  Ge9  1  0.876447  0.623554  0.000000  1.0
  Ge  Ge10  1  0.376446  0.876447  0.000000  1.0
