# generated using pymatgen
data_TmZnRh2
_symmetry_space_group_name_H-M   'P 1'
_cell_length_a   4.53731369
_cell_length_b   4.53731730
_cell_length_c   4.53731572
_cell_angle_alpha   60.00000232
_cell_angle_beta   59.99995025
_cell_angle_gamma   59.99999113
_symmetry_Int_Tables_number   1
_chemical_formula_structural   TmZnRh2
_chemical_formula_sum   'Tm1 Zn1 Rh2'
_cell_volume   66.05136146
_cell_formula_units_Z   1
loop_
 _symmetry_equiv_pos_site_id
 _symmetry_equiv_pos_as_xyz
  1  'x, y, z'
loop_
 _atom_site_type_symbol
 _atom_site_label
 _atom_site_symmetry_multiplicity
 _atom_site_fract_x
 _atom_site_fract_y
 _atom_site_fract_z
 _atom_site_occupancy
  Tm  Tm1  1  0.249999  0.249999  0.249999  1.0
  Zn  Zn2  1  0.750001  0.750001  0.750001  1.0
  Rh  Rh3  1  0.999999  0.000001  0.000000  1.0
  Rh  Rh4  1  0.500001  0.499999  0.499999  1.0
