# generated using pymatgen
data_LiTiO2
_symmetry_space_group_name_H-M   'P 1'
_cell_length_a   5.28708059
_cell_length_b   5.28708058
_cell_length_c   5.28708054
_cell_angle_alpha   32.02026965
_cell_angle_beta   32.02027047
_cell_angle_gamma   32.02027446
_symmetry_Int_Tables_number   1
_chemical_formula_structural   LiTiO2
_chemical_formula_sum   'Li1 Ti1 O2'
_cell_volume   36.91705880
_cell_formula_units_Z   1
loop_
 _symmetry_equiv_pos_site_id
 _symmetry_equiv_pos_as_xyz
  1  'x, y, z'
loop_
 _atom_site_type_symbol
 _atom_site_label
 _atom_site_symmetry_multiplicity
 _atom_site_fract_x
 _atom_site_fract_y
 _atom_site_fract_z
 _atom_site_occupancy
  Li  Li1  1  0.500001  0.500001  0.499999  1.0
  Ti  Ti2  1  0.000000  0.000000  0.000000  1.0
  O  O3  1  0.254013  0.254011  0.254012  1.0
  O  O4  1  0.745990  0.745987  0.745988  1.0
