# generated using pymatgen
data_Eu2O3
_symmetry_space_group_name_H-M   'P 1'
_cell_length_a   3.65052562
_cell_length_b   7.44270581
_cell_length_c   8.94834406
_cell_angle_alpha   99.95181529
_cell_angle_beta   90.00000000
_cell_angle_gamma   104.19612571
_symmetry_Int_Tables_number   1
_chemical_formula_structural   Eu2O3
_chemical_formula_sum   'Eu6 O9'
_cell_volume   231.92478964
_cell_formula_units_Z   3
loop_
 _symmetry_equiv_pos_site_id
 _symmetry_equiv_pos_as_xyz
  1  'x, y, z'
loop_
 _atom_site_type_symbol
 _atom_site_label
 _atom_site_symmetry_multiplicity
 _atom_site_fract_x
 _atom_site_fract_y
 _atom_site_fract_z
 _atom_site_occupancy
  Eu  Eu1  1  0.310631  0.621262  0.866348  1.0
  Eu  Eu2  1  0.362865  0.725730  0.509757  1.0
  Eu  Eu3  1  0.029725  0.059449  0.812869  1.0
  Eu  Eu4  1  0.689369  0.378738  0.133652  1.0
  Eu  Eu5  1  0.970275  0.940551  0.187131  1.0
  Eu  Eu6  1  0.637135  0.274270  0.490243  1.0
  O  O7  1  0.791608  0.583216  0.379857  1.0
  O  O8  1  0.208392  0.416784  0.620143  1.0
  O  O9  1  0.874533  0.749065  0.710478  1.0
  O  O10  1  0.500000  0.000000  0.000000  1.0
  O  O11  1  0.530234  0.060469  0.658740  1.0
  O  O12  1  0.469766  0.939531  0.341260  1.0
  O  O13  1  0.125467  0.250935  0.289522  1.0
  O  O14  1  0.826370  0.652740  0.030468  1.0
  O  O15  1  0.173630  0.347260  0.969532  1.0
