# generated using pymatgen
data_KMg6Ti
_symmetry_space_group_name_H-M   'P 1'
_cell_length_a   6.71283783
_cell_length_b   9.46934081
_cell_length_c   4.53106091
_cell_angle_alpha   90.00000000
_cell_angle_beta   90.00000000
_cell_angle_gamma   134.85507265
_symmetry_Int_Tables_number   1
_chemical_formula_structural   KMg6Ti
_chemical_formula_sum   'K1 Mg6 Ti1'
_cell_volume   204.17687937
_cell_formula_units_Z   1
loop_
 _symmetry_equiv_pos_site_id
 _symmetry_equiv_pos_as_xyz
  1  'x, y, z'
loop_
 _atom_site_type_symbol
 _atom_site_label
 _atom_site_symmetry_multiplicity
 _atom_site_fract_x
 _atom_site_fract_y
 _atom_site_fract_z
 _atom_site_occupancy
  K  K1  1  0.245438  0.872719  0.250000  1.0
  Mg  Mg2  1  0.749841  0.372951  0.250000  1.0
  Mg  Mg3  1  0.749841  0.876891  0.250000  1.0
  Mg  Mg4  1  0.252373  0.155556  0.750000  1.0
  Mg  Mg5  1  0.252373  0.596817  0.750000  1.0
  Mg  Mg6  1  0.805281  0.152641  0.750000  1.0
  Mg  Mg7  1  0.694619  0.597310  0.750000  1.0
  Ti  Ti8  1  0.250235  0.375117  0.250000  1.0
