# generated using pymatgen
data_CaTi2O4
_symmetry_space_group_name_H-M   'P 1'
_cell_length_a   2.99500911
_cell_length_b   9.41910662
_cell_length_c   10.93460295
_cell_angle_alpha   90.00198043
_cell_angle_beta   89.99973094
_cell_angle_gamma   89.99999436
_symmetry_Int_Tables_number   1
_chemical_formula_structural   CaTi2O4
_chemical_formula_sum   'Ca4 Ti8 O16'
_cell_volume   308.46854023
_cell_formula_units_Z   4
loop_
 _symmetry_equiv_pos_site_id
 _symmetry_equiv_pos_as_xyz
  1  'x, y, z'
loop_
 _atom_site_type_symbol
 _atom_site_label
 _atom_site_symmetry_multiplicity
 _atom_site_fract_x
 _atom_site_fract_y
 _atom_site_fract_z
 _atom_site_occupancy
  Ca  Ca1  1  0.749997  0.240358  0.342483  1.0
  Ca  Ca2  1  0.250002  0.759522  0.657546  1.0
  Ca  Ca3  1  0.750002  0.740440  0.157405  1.0
  Ca  Ca4  1  0.249999  0.259600  0.842539  1.0
  Ti  Ti5  1  0.250000  0.417171  0.102661  1.0
  Ti  Ti6  1  0.749998  0.082787  0.602703  1.0
  Ti  Ti7  1  0.249999  0.917102  0.397252  1.0
  Ti  Ti8  1  0.750000  0.582825  0.897292  1.0
  Ti  Ti9  1  0.750003  0.562502  0.391391  1.0
  Ti  Ti10  1  0.249997  0.437550  0.608724  1.0
  Ti  Ti11  1  0.750001  0.062442  0.108603  1.0
  Ti  Ti12  1  0.249999  0.937561  0.891412  1.0
  O  O13  1  0.249998  0.911151  0.074865  1.0
  O  O14  1  0.750000  0.088924  0.925146  1.0
  O  O15  1  0.250002  0.411175  0.425136  1.0
  O  O16  1  0.749998  0.588940  0.574834  1.0
  O  O17  1  0.249999  0.021255  0.718036  1.0
  O  O18  1  0.750001  0.978809  0.281921  1.0
  O  O19  1  0.249998  0.521232  0.781935  1.0
  O  O20  1  0.750001  0.478749  0.218018  1.0
  O  O21  1  0.250000  0.617934  0.026995  1.0
  O  O22  1  0.749999  0.382065  0.973015  1.0
  O  O23  1  0.249999  0.117924  0.473052  1.0
  O  O24  1  0.749998  0.882098  0.527041  1.0
  O  O25  1  0.749998  0.790782  0.838688  1.0
  O  O26  1  0.249999  0.209179  0.161289  1.0
  O  O27  1  0.249999  0.709166  0.338696  1.0
  O  O28  1  0.749998  0.290756  0.661321  1.0
