# generated using pymatgen
data_InP3
_symmetry_space_group_name_H-M   'P 1'
_cell_length_a   5.50761334
_cell_length_b   5.50761334
_cell_length_c   5.50761334
_cell_angle_alpha   86.14093999
_cell_angle_beta   86.14094005
_cell_angle_gamma   86.14093997
_symmetry_Int_Tables_number   1
_chemical_formula_structural   InP3
_chemical_formula_sum   'In2 P6'
_cell_volume   165.97913534
_cell_formula_units_Z   2
loop_
 _symmetry_equiv_pos_site_id
 _symmetry_equiv_pos_as_xyz
  1  'x, y, z'
loop_
 _atom_site_type_symbol
 _atom_site_label
 _atom_site_symmetry_multiplicity
 _atom_site_fract_x
 _atom_site_fract_y
 _atom_site_fract_z
 _atom_site_occupancy
  In  In1  1  0.274372  0.274372  0.274372  1.0
  In  In2  1  0.725628  0.725628  0.725628  1.0
  P  P3  1  0.798134  0.242677  0.798134  1.0
  P  P4  1  0.798134  0.798134  0.242677  1.0
  P  P5  1  0.242677  0.798134  0.798134  1.0
  P  P6  1  0.757323  0.201866  0.201866  1.0
  P  P7  1  0.201866  0.757323  0.201866  1.0
  P  P8  1  0.201866  0.201866  0.757323  1.0
