# generated using pymatgen
data_CaVO3
_symmetry_space_group_name_H-M   'P 1'
_cell_length_a   5.38145373
_cell_length_b   5.43759403
_cell_length_c   7.68253835
_cell_angle_alpha   89.54560825
_cell_angle_beta   89.74040006
_cell_angle_gamma   90.69266365
_symmetry_Int_Tables_number   1
_chemical_formula_structural   CaVO3
_chemical_formula_sum   'Ca4 V4 O12'
_cell_volume   224.78176841
_cell_formula_units_Z   4
loop_
 _symmetry_equiv_pos_site_id
 _symmetry_equiv_pos_as_xyz
  1  'x, y, z'
loop_
 _atom_site_type_symbol
 _atom_site_label
 _atom_site_symmetry_multiplicity
 _atom_site_fract_x
 _atom_site_fract_y
 _atom_site_fract_z
 _atom_site_occupancy
  Ca  Ca1  1  0.994001  0.039607  0.245617  1.0
  Ca  Ca2  1  0.492993  0.459045  0.753330  1.0
  Ca  Ca3  1  0.507028  0.540931  0.246691  1.0
  Ca  Ca4  1  0.006007  0.960378  0.754403  1.0
  V  V5  1  0.499557  0.999934  0.000021  1.0
  V  V6  1  0.000466  0.500162  0.999871  1.0
  V  V7  1  0.999613  0.499674  0.499988  1.0
  V  V8  1  0.500329  0.000457  0.499975  1.0
  O  O9  1  0.925061  0.515408  0.748326  1.0
  O  O10  1  0.426050  0.984356  0.244638  1.0
  O  O11  1  0.573949  0.015618  0.755380  1.0
  O  O12  1  0.074960  0.484566  0.251687  1.0
  O  O13  1  0.700893  0.279997  0.462274  1.0
  O  O14  1  0.203282  0.218152  0.540613  1.0
  O  O15  1  0.791915  0.793794  0.036799  1.0
  O  O16  1  0.286271  0.703934  0.962880  1.0
  O  O17  1  0.713731  0.296030  0.037143  1.0
  O  O18  1  0.208072  0.206180  0.963218  1.0
  O  O19  1  0.299096  0.719952  0.537743  1.0
  O  O20  1  0.796727  0.781828  0.459403  1.0
