# generated using pymatgen
data_CaLaZn2
_symmetry_space_group_name_H-M   'P 1'
_cell_length_a   5.26994259
_cell_length_b   5.26994259
_cell_length_c   5.26994259
_cell_angle_alpha   59.98550822
_cell_angle_beta   59.98550822
_cell_angle_gamma   59.98550822
_symmetry_Int_Tables_number   1
_chemical_formula_structural   CaLaZn2
_chemical_formula_sum   'Ca1 La1 Zn2'
_cell_volume   103.45701033
_cell_formula_units_Z   1
loop_
 _symmetry_equiv_pos_site_id
 _symmetry_equiv_pos_as_xyz
  1  'x, y, z'
loop_
 _atom_site_type_symbol
 _atom_site_label
 _atom_site_symmetry_multiplicity
 _atom_site_fract_x
 _atom_site_fract_y
 _atom_site_fract_z
 _atom_site_occupancy
  Ca  Ca1  1  0.250001  0.250001  0.250001  1.0
  La  La2  1  0.750000  0.750000  0.750000  1.0
  Zn  Zn3  1  0.500073  0.500073  0.500073  1.0
  Zn  Zn4  1  0.999927  0.999927  0.999927  1.0
