# generated using pymatgen
data_MgSnIr2
_symmetry_space_group_name_H-M   'P 1'
_cell_length_a   4.50691264
_cell_length_b   4.50691669
_cell_length_c   4.50691449
_cell_angle_alpha   59.99996990
_cell_angle_beta   59.99995864
_cell_angle_gamma   59.99997805
_symmetry_Int_Tables_number   1
_chemical_formula_structural   MgSnIr2
_chemical_formula_sum   'Mg1 Sn1 Ir2'
_cell_volume   64.73254532
_cell_formula_units_Z   1
loop_
 _symmetry_equiv_pos_site_id
 _symmetry_equiv_pos_as_xyz
  1  'x, y, z'
loop_
 _atom_site_type_symbol
 _atom_site_label
 _atom_site_symmetry_multiplicity
 _atom_site_fract_x
 _atom_site_fract_y
 _atom_site_fract_z
 _atom_site_occupancy
  Mg  Mg1  1  0.250000  0.250000  0.250000  1.0
  Sn  Sn2  1  0.750000  0.750000  0.750000  1.0
  Ir  Ir3  1  0.000000  0.000000  0.000000  1.0
  Ir  Ir4  1  0.500000  0.500000  0.500000  1.0
