# generated using pymatgen
data_Hf2TcRh
_symmetry_space_group_name_H-M   'P 1'
_cell_length_a   4.61575793
_cell_length_b   4.61574108
_cell_length_c   4.61575676
_cell_angle_alpha   60.00002600
_cell_angle_beta   60.00005610
_cell_angle_gamma   60.00010520
_symmetry_Int_Tables_number   1
_chemical_formula_structural   Hf2TcRh
_chemical_formula_sum   'Hf2 Tc1 Rh1'
_cell_volume   69.53652681
_cell_formula_units_Z   1
loop_
 _symmetry_equiv_pos_site_id
 _symmetry_equiv_pos_as_xyz
  1  'x, y, z'
loop_
 _atom_site_type_symbol
 _atom_site_label
 _atom_site_symmetry_multiplicity
 _atom_site_fract_x
 _atom_site_fract_y
 _atom_site_fract_z
 _atom_site_occupancy
  Hf  Hf1  1  0.999999  0.000001  0.000000  1.0
  Hf  Hf2  1  0.500002  0.500001  0.500000  1.0
  Tc  Tc3  1  0.750000  0.749999  0.750001  1.0
  Rh  Rh4  1  0.250000  0.250000  0.250001  1.0
