# generated using pymatgen
data_LuInRh2
_symmetry_space_group_name_H-M   'P 1'
_cell_length_a   4.64972488
_cell_length_b   4.64972488
_cell_length_c   4.64972488
_cell_angle_alpha   60.00000000
_cell_angle_beta   60.00000000
_cell_angle_gamma   60.00000000
_symmetry_Int_Tables_number   1
_chemical_formula_structural   LuInRh2
_chemical_formula_sum   'Lu1 In1 Rh2'
_cell_volume   71.08316762
_cell_formula_units_Z   1
loop_
 _symmetry_equiv_pos_site_id
 _symmetry_equiv_pos_as_xyz
  1  'x, y, z'
loop_
 _atom_site_type_symbol
 _atom_site_label
 _atom_site_symmetry_multiplicity
 _atom_site_fract_x
 _atom_site_fract_y
 _atom_site_fract_z
 _atom_site_occupancy
  Lu  Lu1  1  0.749999  0.749999  0.749999  1.0
  In  In2  1  0.250000  0.250000  0.250000  1.0
  Rh  Rh3  1  0.000000  0.000000  0.000000  1.0
  Rh  Rh4  1  0.500001  0.500001  0.500001  1.0
