# generated using pymatgen
data_Ti3Os
_symmetry_space_group_name_H-M   'P 1'
_cell_length_a   4.46437345
_cell_length_b   4.46437152
_cell_length_c   4.46437257
_cell_angle_alpha   60.00002609
_cell_angle_beta   60.00000938
_cell_angle_gamma   60.00001609
_symmetry_Int_Tables_number   1
_chemical_formula_structural   Ti3Os
_chemical_formula_sum   'Ti3 Os1'
_cell_volume   62.91677424
_cell_formula_units_Z   1
loop_
 _symmetry_equiv_pos_site_id
 _symmetry_equiv_pos_as_xyz
  1  'x, y, z'
loop_
 _atom_site_type_symbol
 _atom_site_label
 _atom_site_symmetry_multiplicity
 _atom_site_fract_x
 _atom_site_fract_y
 _atom_site_fract_z
 _atom_site_occupancy
  Ti  Ti1  1  0.000000  0.000000  0.000000  1.0
  Ti  Ti2  1  0.500000  0.500000  0.500000  1.0
  Ti  Ti3  1  0.250001  0.250001  0.250001  1.0
  Os  Os4  1  0.750000  0.750000  0.750000  1.0
