# generated using pymatgen
data_CsPdBr3
_symmetry_space_group_name_H-M   'P 1'
_cell_length_a   5.33704926
_cell_length_b   5.33492134
_cell_length_c   5.33416928
_cell_angle_alpha   90.01568204
_cell_angle_beta   89.99023618
_cell_angle_gamma   90.01850296
_symmetry_Int_Tables_number   1
_chemical_formula_structural   CsPdBr3
_chemical_formula_sum   'Cs1 Pd1 Br3'
_cell_volume   151.87838849
_cell_formula_units_Z   1
loop_
 _symmetry_equiv_pos_site_id
 _symmetry_equiv_pos_as_xyz
  1  'x, y, z'
loop_
 _atom_site_type_symbol
 _atom_site_label
 _atom_site_symmetry_multiplicity
 _atom_site_fract_x
 _atom_site_fract_y
 _atom_site_fract_z
 _atom_site_occupancy
  Cs  Cs1  1  0.000743  0.991932  0.000697  1.0
  Pd  Pd2  1  0.495620  0.485014  0.499218  1.0
  Br  Br3  1  0.496838  0.488264  0.999289  1.0
  Br  Br4  1  0.501019  0.985313  0.501670  1.0
  Br  Br5  1  0.995778  0.489474  0.499126  1.0
