# generated using pymatgen
data_MgZn
_symmetry_space_group_name_H-M   'P 1'
_cell_length_a   10.73417096
_cell_length_b   10.73417113
_cell_length_c   17.58799072
_cell_angle_alpha   90.00000000
_cell_angle_beta   90.00000000
_cell_angle_gamma   119.90250426
_symmetry_Int_Tables_number   1
_chemical_formula_structural   MgZn
_chemical_formula_sum   'Mg48 Zn48'
_cell_volume   1756.74897590
_cell_formula_units_Z   48
loop_
 _symmetry_equiv_pos_site_id
 _symmetry_equiv_pos_as_xyz
  1  'x, y, z'
loop_
 _atom_site_type_symbol
 _atom_site_label
 _atom_site_symmetry_multiplicity
 _atom_site_fract_x
 _atom_site_fract_y
 _atom_site_fract_z
 _atom_site_occupancy
  Mg  Mg1  1  0.666580  0.833420  0.217619  1.0
  Mg  Mg2  1  0.833351  0.166649  0.282329  1.0
  Mg  Mg3  1  0.499846  0.000154  0.749476  1.0
  Mg  Mg4  1  0.666814  0.833186  0.718000  1.0
  Mg  Mg5  1  0.833351  0.166649  0.967671  1.0
  Mg  Mg6  1  0.499846  0.500154  0.249476  1.0
  Mg  Mg7  1  0.000153  0.499847  0.250499  1.0
  Mg  Mg8  1  0.333351  0.666649  0.967671  1.0
  Mg  Mg9  1  0.166580  0.833420  0.717619  1.0
  Mg  Mg10  1  0.166815  0.833186  0.032000  1.0
  Mg  Mg11  1  0.666814  0.333186  0.218000  1.0
  Mg  Mg12  1  0.833253  0.166746  0.782047  1.0
  Mg  Mg13  1  0.833351  0.666649  0.467671  1.0
  Mg  Mg14  1  0.666580  0.333420  0.717619  1.0
  Mg  Mg15  1  0.666814  0.833186  0.532000  1.0
  Mg  Mg16  1  0.166815  0.833186  0.218000  1.0
  Mg  Mg17  1  0.166580  0.333420  0.217619  1.0
  Mg  Mg18  1  0.333253  0.166746  0.967953  1.0
  Mg  Mg19  1  0.666580  0.333420  0.532381  1.0
  Mg  Mg20  1  0.500153  0.999847  0.999501  1.0
  Mg  Mg21  1  0.166580  0.833420  0.532381  1.0
  Mg  Mg22  1  0.999846  0.500154  0.500524  1.0
  Mg  Mg23  1  0.833351  0.666649  0.782329  1.0
  Mg  Mg24  1  0.500153  0.999847  0.250499  1.0
  Mg  Mg25  1  0.166815  0.333186  0.718000  1.0
  Mg  Mg26  1  0.333351  0.166649  0.467671  1.0
  Mg  Mg27  1  0.999846  0.000154  0.249476  1.0
  Mg  Mg28  1  0.333351  0.666649  0.282329  1.0
  Mg  Mg29  1  0.666814  0.333186  0.032000  1.0
  Mg  Mg30  1  0.166815  0.333186  0.532000  1.0
  Mg  Mg31  1  0.333351  0.166649  0.782329  1.0
  Mg  Mg32  1  0.000153  0.499847  0.999501  1.0
  Mg  Mg33  1  0.000153  0.999847  0.750499  1.0
  Mg  Mg34  1  0.333253  0.166746  0.282047  1.0
  Mg  Mg35  1  0.499846  0.000154  0.500524  1.0
  Mg  Mg36  1  0.500153  0.499847  0.499501  1.0
  Mg  Mg37  1  0.833253  0.666747  0.967953  1.0
  Mg  Mg38  1  0.666580  0.833420  0.032381  1.0
  Mg  Mg39  1  0.000153  0.999847  0.499501  1.0
  Mg  Mg40  1  0.833253  0.666747  0.282047  1.0
  Mg  Mg41  1  0.500153  0.499847  0.750499  1.0
  Mg  Mg42  1  0.999846  0.000154  0.000524  1.0
  Mg  Mg43  1  0.333253  0.666747  0.467953  1.0
  Mg  Mg44  1  0.333253  0.666747  0.782047  1.0
  Mg  Mg45  1  0.999846  0.500154  0.749476  1.0
  Mg  Mg46  1  0.833253  0.166746  0.467953  1.0
  Mg  Mg47  1  0.166580  0.333420  0.032381  1.0
  Mg  Mg48  1  0.499846  0.500154  0.000524  1.0
  Zn  Zn49  1  0.414051  0.585949  0.625000  1.0
  Zn  Zn50  1  0.086440  0.413560  0.375833  1.0
  Zn  Zn51  1  0.827099  0.413530  0.874466  1.0
  Zn  Zn52  1  0.086470  0.172901  0.374466  1.0
  Zn  Zn53  1  0.672357  0.086815  0.125000  1.0
  Zn  Zn54  1  0.327099  0.413530  0.374466  1.0
  Zn  Zn55  1  0.172357  0.086815  0.625000  1.0
  Zn  Zn56  1  0.913185  0.827643  0.625000  1.0
  Zn  Zn57  1  0.327099  0.913530  0.375534  1.0
  Zn  Zn58  1  0.586440  0.413560  0.875833  1.0
  Zn  Zn59  1  0.586470  0.172901  0.375534  1.0
  Zn  Zn60  1  0.673458  0.086115  0.625000  1.0
  Zn  Zn61  1  0.086440  0.913560  0.875833  1.0
  Zn  Zn62  1  0.327099  0.413530  0.875534  1.0
  Zn  Zn63  1  0.173458  0.586115  0.625000  1.0
  Zn  Zn64  1  0.086470  0.672901  0.375534  1.0
  Zn  Zn65  1  0.914051  0.085949  0.625000  1.0
  Zn  Zn66  1  0.586470  0.172901  0.874466  1.0
  Zn  Zn67  1  0.586470  0.672901  0.374466  1.0
  Zn  Zn68  1  0.586470  0.672901  0.875534  1.0
  Zn  Zn69  1  0.586440  0.413560  0.374167  1.0
  Zn  Zn70  1  0.913050  0.586950  0.625000  1.0
  Zn  Zn71  1  0.913885  0.826542  0.125000  1.0
  Zn  Zn72  1  0.413185  0.827643  0.125000  1.0
  Zn  Zn73  1  0.672357  0.586815  0.625000  1.0
  Zn  Zn74  1  0.414051  0.085949  0.125000  1.0
  Zn  Zn75  1  0.827099  0.413530  0.375534  1.0
  Zn  Zn76  1  0.413885  0.326542  0.125000  1.0
  Zn  Zn77  1  0.086470  0.672901  0.874466  1.0
  Zn  Zn78  1  0.086470  0.172901  0.875534  1.0
  Zn  Zn79  1  0.413050  0.086950  0.625000  1.0
  Zn  Zn80  1  0.173458  0.086115  0.125000  1.0
  Zn  Zn81  1  0.913050  0.086950  0.125000  1.0
  Zn  Zn82  1  0.327099  0.913530  0.874466  1.0
  Zn  Zn83  1  0.827099  0.913530  0.374466  1.0
  Zn  Zn84  1  0.913185  0.327643  0.125000  1.0
  Zn  Zn85  1  0.913885  0.326542  0.625000  1.0
  Zn  Zn86  1  0.172357  0.586815  0.125000  1.0
  Zn  Zn87  1  0.673458  0.586115  0.125000  1.0
  Zn  Zn88  1  0.086440  0.413560  0.874167  1.0
  Zn  Zn89  1  0.586440  0.913560  0.874167  1.0
  Zn  Zn90  1  0.413885  0.826542  0.625000  1.0
  Zn  Zn91  1  0.914051  0.585949  0.125000  1.0
  Zn  Zn92  1  0.586440  0.913560  0.375833  1.0
  Zn  Zn93  1  0.086440  0.913560  0.374167  1.0
  Zn  Zn94  1  0.413185  0.327643  0.625000  1.0
  Zn  Zn95  1  0.413050  0.586950  0.125000  1.0
  Zn  Zn96  1  0.827099  0.913530  0.875534  1.0
