# generated using pymatgen
data_LiSn4Ir
_symmetry_space_group_name_H-M   'P 1'
_cell_length_a   6.68209350
_cell_length_b   6.68209350
_cell_length_c   7.45002923
_cell_angle_alpha   116.64497917
_cell_angle_beta   116.64497924
_cell_angle_gamma   90.00000000
_symmetry_Int_Tables_number   1
_chemical_formula_structural   LiSn4Ir
_chemical_formula_sum   'Li2 Sn8 Ir2'
_cell_volume   257.18672783
_cell_formula_units_Z   2
loop_
 _symmetry_equiv_pos_site_id
 _symmetry_equiv_pos_as_xyz
  1  'x, y, z'
loop_
 _atom_site_type_symbol
 _atom_site_label
 _atom_site_symmetry_multiplicity
 _atom_site_fract_x
 _atom_site_fract_y
 _atom_site_fract_z
 _atom_site_occupancy
  Li  Li1  1  0.500000  0.500000  0.000000  1.0
  Li  Li2  1  0.000000  0.000000  0.000000  1.0
  Sn  Sn3  1  0.523423  0.706291  0.729714  1.0
  Sn  Sn4  1  0.023423  0.523423  0.729714  1.0
  Sn  Sn5  1  0.706291  0.206291  0.729714  1.0
  Sn  Sn6  1  0.293709  0.793709  0.270286  1.0
  Sn  Sn7  1  0.976577  0.476577  0.270286  1.0
  Sn  Sn8  1  0.476577  0.293709  0.270286  1.0
  Sn  Sn9  1  0.793709  0.976577  0.270286  1.0
  Sn  Sn10  1  0.206291  0.023423  0.729714  1.0
  Ir  Ir11  1  0.750000  0.750000  0.500000  1.0
  Ir  Ir12  1  0.250000  0.250000  0.500000  1.0
