# generated using pymatgen
data_Li2PNO2
_symmetry_space_group_name_H-M   'P 1'
_cell_length_a   4.74896882
_cell_length_b   5.33040181
_cell_length_c   5.33040181
_cell_angle_alpha   118.37199812
_cell_angle_beta   90.00000000
_cell_angle_gamma   90.00000000
_symmetry_Int_Tables_number   1
_chemical_formula_structural   Li2PNO2
_chemical_formula_sum   'Li4 P2 N2 O4'
_cell_volume   118.72525540
_cell_formula_units_Z   2
loop_
 _symmetry_equiv_pos_site_id
 _symmetry_equiv_pos_as_xyz
  1  'x, y, z'
loop_
 _atom_site_type_symbol
 _atom_site_label
 _atom_site_symmetry_multiplicity
 _atom_site_fract_x
 _atom_site_fract_y
 _atom_site_fract_z
 _atom_site_occupancy
  Li  Li1  1  0.501556  0.993793  0.325136  1.0
  Li  Li2  1  0.501556  0.325136  0.993793  1.0
  Li  Li3  1  0.001556  0.006207  0.674864  1.0
  Li  Li4  1  0.001556  0.674864  0.006207  1.0
  P  P5  1  0.498511  0.653750  0.653750  1.0
  P  P6  1  0.998511  0.346250  0.346250  1.0
  N  N7  1  0.341176  0.387000  0.387000  1.0
  N  N8  1  0.841176  0.613000  0.613000  1.0
  O  O9  1  0.419101  0.666403  0.944497  1.0
  O  O10  1  0.419101  0.944497  0.666403  1.0
  O  O11  1  0.919101  0.333597  0.055503  1.0
  O  O12  1  0.919101  0.055503  0.333597  1.0
