# generated using pymatgen
data_CdGeAs2
_symmetry_space_group_name_H-M   'P 1'
_cell_length_a   6.06803170
_cell_length_b   6.06802166
_cell_length_c   7.16317548
_cell_angle_alpha   115.05745447
_cell_angle_beta   115.05741783
_cell_angle_gamma   89.99599394
_symmetry_Int_Tables_number   1
_chemical_formula_structural   CdGeAs2
_chemical_formula_sum   'Cd2 Ge2 As4'
_cell_volume   211.21409479
_cell_formula_units_Z   2
loop_
 _symmetry_equiv_pos_site_id
 _symmetry_equiv_pos_as_xyz
  1  'x, y, z'
loop_
 _atom_site_type_symbol
 _atom_site_label
 _atom_site_symmetry_multiplicity
 _atom_site_fract_x
 _atom_site_fract_y
 _atom_site_fract_z
 _atom_site_occupancy
  Cd  Cd1  1  0.249992  0.749996  0.499991  1.0
  Cd  Cd2  1  0.999996  0.999993  0.999991  1.0
  Ge  Ge3  1  0.749989  0.249986  0.499967  1.0
  Ge  Ge4  1  0.499987  0.499990  0.999968  1.0
  As  As5  1  0.625067  0.152531  0.750053  1.0
  As  As6  1  0.847486  0.874952  0.249988  1.0
  As  As7  1  0.124952  0.597485  0.749988  1.0
  As  As8  1  0.402531  0.375067  0.250053  1.0
