# generated using pymatgen
data_LiSn2N3
_symmetry_space_group_name_H-M   'P 1'
_cell_length_a   6.04332642
_cell_length_b   5.98713650
_cell_length_c   5.54641564
_cell_angle_alpha   90.00000000
_cell_angle_beta   90.00000000
_cell_angle_gamma   119.69290320
_symmetry_Int_Tables_number   1
_chemical_formula_structural   LiSn2N3
_chemical_formula_sum   'Li2 Sn4 N6'
_cell_volume   174.33070413
_cell_formula_units_Z   2
loop_
 _symmetry_equiv_pos_site_id
 _symmetry_equiv_pos_as_xyz
  1  'x, y, z'
loop_
 _atom_site_type_symbol
 _atom_site_label
 _atom_site_symmetry_multiplicity
 _atom_site_fract_x
 _atom_site_fract_y
 _atom_site_fract_z
 _atom_site_occupancy
  Li  Li1  1  0.000000  0.658626  0.494115  1.0
  Li  Li2  1  0.000000  0.341374  0.994115  1.0
  Sn  Sn3  1  0.321305  0.335663  0.491161  1.0
  Sn  Sn4  1  0.678695  0.014360  0.491161  1.0
  Sn  Sn5  1  0.678695  0.664337  0.991161  1.0
  Sn  Sn6  1  0.321305  0.985640  0.991161  1.0
  N  N7  1  0.350195  0.333040  0.870335  1.0
  N  N8  1  0.649805  0.982845  0.870335  1.0
  N  N9  1  0.649805  0.666960  0.370335  1.0
  N  N10  1  0.350195  0.017155  0.370335  1.0
  N  N11  1  0.000000  0.673177  0.870894  1.0
  N  N12  1  0.000000  0.326823  0.370894  1.0
