# generated using pymatgen
data_Ba(NbN2)2
_symmetry_space_group_name_H-M   'P 1'
_cell_length_a   11.25582300
_cell_length_b   11.25582300
_cell_length_c   11.25582300
_cell_angle_alpha   90.00000000
_cell_angle_beta   90.00000000
_cell_angle_gamma   90.00000000
_symmetry_Int_Tables_number   1
_chemical_formula_structural   Ba(NbN2)2
_chemical_formula_sum   'Ba12 Nb24 N48'
_cell_volume   1426.04018988
_cell_formula_units_Z   12
loop_
 _symmetry_equiv_pos_site_id
 _symmetry_equiv_pos_as_xyz
  1  'x, y, z'
loop_
 _atom_site_type_symbol
 _atom_site_label
 _atom_site_symmetry_multiplicity
 _atom_site_fract_x
 _atom_site_fract_y
 _atom_site_fract_z
 _atom_site_occupancy
  Ba  Ba1  1  0.500000  0.500000  0.000000  1.0
  Ba  Ba2  1  0.500000  0.000000  0.500000  1.0
  Ba  Ba3  1  0.000000  0.500000  0.500000  1.0
  Ba  Ba4  1  0.000000  0.000000  0.000000  1.0
  Ba  Ba5  1  0.120664  0.879336  0.379336  1.0
  Ba  Ba6  1  0.879336  0.379336  0.120664  1.0
  Ba  Ba7  1  0.379336  0.120664  0.879336  1.0
  Ba  Ba8  1  0.620664  0.620664  0.620664  1.0
  Ba  Ba9  1  0.879336  0.120664  0.620664  1.0
  Ba  Ba10  1  0.120664  0.620664  0.879336  1.0
  Ba  Ba11  1  0.620664  0.879336  0.120664  1.0
  Ba  Ba12  1  0.379336  0.379336  0.379336  1.0
  Nb  Nb13  1  0.394783  0.709682  0.348675  1.0
  Nb  Nb14  1  0.605217  0.209682  0.151325  1.0
  Nb  Nb15  1  0.105217  0.290318  0.848675  1.0
  Nb  Nb16  1  0.894783  0.790318  0.651325  1.0
  Nb  Nb17  1  0.348675  0.394783  0.709682  1.0
  Nb  Nb18  1  0.151325  0.605217  0.209682  1.0
  Nb  Nb19  1  0.848675  0.105217  0.290318  1.0
  Nb  Nb20  1  0.651325  0.894783  0.790318  1.0
  Nb  Nb21  1  0.709682  0.348675  0.394783  1.0
  Nb  Nb22  1  0.209682  0.151325  0.605217  1.0
  Nb  Nb23  1  0.290318  0.848675  0.105217  1.0
  Nb  Nb24  1  0.790318  0.651325  0.894783  1.0
  Nb  Nb25  1  0.605217  0.290318  0.651325  1.0
  Nb  Nb26  1  0.394783  0.790318  0.848675  1.0
  Nb  Nb27  1  0.894783  0.709682  0.151325  1.0
  Nb  Nb28  1  0.105217  0.209682  0.348675  1.0
  Nb  Nb29  1  0.651325  0.605217  0.290318  1.0
  Nb  Nb30  1  0.848675  0.394783  0.790318  1.0
  Nb  Nb31  1  0.151325  0.894783  0.709682  1.0
  Nb  Nb32  1  0.348675  0.105217  0.209682  1.0
  Nb  Nb33  1  0.290318  0.651325  0.605217  1.0
  Nb  Nb34  1  0.790318  0.848675  0.394783  1.0
  Nb  Nb35  1  0.709682  0.151325  0.894783  1.0
  Nb  Nb36  1  0.209682  0.348675  0.105217  1.0
  N  N37  1  0.358722  0.863162  0.265563  1.0
  N  N38  1  0.641278  0.363162  0.234437  1.0
  N  N39  1  0.141278  0.136838  0.765563  1.0
  N  N40  1  0.858722  0.636838  0.734437  1.0
  N  N41  1  0.265563  0.358722  0.863162  1.0
  N  N42  1  0.234437  0.641278  0.363162  1.0
  N  N43  1  0.765563  0.141278  0.136838  1.0
  N  N44  1  0.734437  0.858722  0.636838  1.0
  N  N45  1  0.863162  0.265563  0.358722  1.0
  N  N46  1  0.363162  0.234437  0.641278  1.0
  N  N47  1  0.136838  0.765563  0.141278  1.0
  N  N48  1  0.636838  0.734437  0.858722  1.0
  N  N49  1  0.641278  0.136838  0.734437  1.0
  N  N50  1  0.358722  0.636838  0.765563  1.0
  N  N51  1  0.858722  0.863162  0.234437  1.0
  N  N52  1  0.141278  0.363162  0.265563  1.0
  N  N53  1  0.734437  0.641278  0.136838  1.0
  N  N54  1  0.765563  0.358722  0.636838  1.0
  N  N55  1  0.234437  0.858722  0.863162  1.0
  N  N56  1  0.265563  0.141278  0.363162  1.0
  N  N57  1  0.136838  0.734437  0.641278  1.0
  N  N58  1  0.636838  0.765563  0.358722  1.0
  N  N59  1  0.863162  0.234437  0.858722  1.0
  N  N60  1  0.363162  0.265563  0.141278  1.0
  N  N61  1  0.421037  0.731842  0.517826  1.0
  N  N62  1  0.578963  0.231842  0.982174  1.0
  N  N63  1  0.078963  0.268158  0.017826  1.0
  N  N64  1  0.921037  0.768158  0.482174  1.0
  N  N65  1  0.517826  0.421037  0.731842  1.0
  N  N66  1  0.982174  0.578963  0.231842  1.0
  N  N67  1  0.017826  0.078963  0.268158  1.0
  N  N68  1  0.482174  0.921037  0.768158  1.0
  N  N69  1  0.731842  0.517826  0.421037  1.0
  N  N70  1  0.231842  0.982174  0.578963  1.0
  N  N71  1  0.268158  0.017826  0.078963  1.0
  N  N72  1  0.768158  0.482174  0.921037  1.0
  N  N73  1  0.578963  0.268158  0.482174  1.0
  N  N74  1  0.421037  0.768158  0.017826  1.0
  N  N75  1  0.921037  0.731842  0.982174  1.0
  N  N76  1  0.078963  0.231842  0.517826  1.0
  N  N77  1  0.482174  0.578963  0.268158  1.0
  N  N78  1  0.017826  0.421037  0.768158  1.0
  N  N79  1  0.982174  0.921037  0.731842  1.0
  N  N80  1  0.517826  0.078963  0.231842  1.0
  N  N81  1  0.268158  0.482174  0.578963  1.0
  N  N82  1  0.768158  0.017826  0.421037  1.0
  N  N83  1  0.731842  0.982174  0.921037  1.0
  N  N84  1  0.231842  0.517826  0.078963  1.0
