# generated using pymatgen
data_Li7SbN4
_symmetry_space_group_name_H-M   'P 1'
_cell_length_a   9.93571400
_cell_length_b   9.93571400
_cell_length_c   9.93571400
_cell_angle_alpha   90.00000000
_cell_angle_beta   90.00000000
_cell_angle_gamma   90.00000000
_symmetry_Int_Tables_number   1
_chemical_formula_structural   Li7SbN4
_chemical_formula_sum   'Li56 Sb8 N32'
_cell_volume   980.83791502
_cell_formula_units_Z   8
loop_
 _symmetry_equiv_pos_site_id
 _symmetry_equiv_pos_as_xyz
  1  'x, y, z'
loop_
 _atom_site_type_symbol
 _atom_site_label
 _atom_site_symmetry_multiplicity
 _atom_site_fract_x
 _atom_site_fract_y
 _atom_site_fract_z
 _atom_site_occupancy
  Li  Li1  1  0.000000  0.000000  0.500000  1.0
  Li  Li2  1  0.000000  0.500000  0.000000  1.0
  Li  Li3  1  0.500000  0.000000  0.000000  1.0
  Li  Li4  1  0.500000  0.000000  0.500000  1.0
  Li  Li5  1  0.500000  0.500000  0.000000  1.0
  Li  Li6  1  0.000000  0.500000  0.500000  1.0
  Li  Li7  1  0.000000  0.500000  0.250000  1.0
  Li  Li8  1  0.500000  0.750000  0.000000  1.0
  Li  Li9  1  0.250000  0.000000  0.500000  1.0
  Li  Li10  1  0.500000  0.250000  0.000000  1.0
  Li  Li11  1  0.750000  0.000000  0.500000  1.0
  Li  Li12  1  0.000000  0.500000  0.750000  1.0
  Li  Li13  1  0.260123  0.739877  0.260123  1.0
  Li  Li14  1  0.739877  0.260123  0.260123  1.0
  Li  Li15  1  0.260123  0.260123  0.739877  1.0
  Li  Li16  1  0.739877  0.739877  0.739877  1.0
  Li  Li17  1  0.760123  0.760123  0.239877  1.0
  Li  Li18  1  0.239877  0.760123  0.760123  1.0
  Li  Li19  1  0.760123  0.239877  0.760123  1.0
  Li  Li20  1  0.239877  0.239877  0.239877  1.0
  Li  Li21  1  0.500000  0.500000  0.230563  1.0
  Li  Li22  1  0.500000  0.769437  0.500000  1.0
  Li  Li23  1  0.230563  0.500000  0.500000  1.0
  Li  Li24  1  0.500000  0.230563  0.500000  1.0
  Li  Li25  1  0.769437  0.500000  0.500000  1.0
  Li  Li26  1  0.500000  0.500000  0.769437  1.0
  Li  Li27  1  0.000000  0.730563  0.000000  1.0
  Li  Li28  1  0.000000  0.000000  0.269437  1.0
  Li  Li29  1  0.730563  0.000000  0.000000  1.0
  Li  Li30  1  0.000000  0.000000  0.730563  1.0
  Li  Li31  1  0.269437  0.000000  0.000000  1.0
  Li  Li32  1  0.000000  0.269437  0.000000  1.0
  Li  Li33  1  0.510837  0.731182  0.250579  1.0
  Li  Li34  1  0.268818  0.749421  0.510837  1.0
  Li  Li35  1  0.250579  0.489163  0.268818  1.0
  Li  Li36  1  0.489163  0.268818  0.250579  1.0
  Li  Li37  1  0.731182  0.250579  0.510837  1.0
  Li  Li38  1  0.749421  0.510837  0.268818  1.0
  Li  Li39  1  0.510837  0.268818  0.749421  1.0
  Li  Li40  1  0.268818  0.250579  0.489163  1.0
  Li  Li41  1  0.250579  0.510837  0.731182  1.0
  Li  Li42  1  0.489163  0.731182  0.749421  1.0
  Li  Li43  1  0.731182  0.749421  0.489163  1.0
  Li  Li44  1  0.749421  0.489163  0.731182  1.0
  Li  Li45  1  0.010837  0.750579  0.231182  1.0
  Li  Li46  1  0.768818  0.010837  0.249421  1.0
  Li  Li47  1  0.750579  0.768818  0.989163  1.0
  Li  Li48  1  0.989163  0.750579  0.768818  1.0
  Li  Li49  1  0.231182  0.010837  0.750579  1.0
  Li  Li50  1  0.249421  0.768818  0.010837  1.0
  Li  Li51  1  0.010837  0.249421  0.768818  1.0
  Li  Li52  1  0.768818  0.989163  0.750579  1.0
  Li  Li53  1  0.750579  0.231182  0.010837  1.0
  Li  Li54  1  0.989163  0.249421  0.231182  1.0
  Li  Li55  1  0.231182  0.989163  0.249421  1.0
  Li  Li56  1  0.249421  0.231182  0.989163  1.0
  Sb  Sb57  1  0.500000  0.500000  0.500000  1.0
  Sb  Sb58  1  0.000000  0.000000  0.000000  1.0
  Sb  Sb59  1  0.500000  0.000000  0.250000  1.0
  Sb  Sb60  1  0.000000  0.750000  0.500000  1.0
  Sb  Sb61  1  0.250000  0.500000  0.000000  1.0
  Sb  Sb62  1  0.000000  0.250000  0.500000  1.0
  Sb  Sb63  1  0.750000  0.500000  0.000000  1.0
  Sb  Sb64  1  0.500000  0.000000  0.750000  1.0
  N  N65  1  0.381886  0.618114  0.381886  1.0
  N  N66  1  0.618114  0.381886  0.381886  1.0
  N  N67  1  0.381886  0.381886  0.618114  1.0
  N  N68  1  0.618114  0.618114  0.618114  1.0
  N  N69  1  0.881886  0.881886  0.118114  1.0
  N  N70  1  0.118114  0.881886  0.881886  1.0
  N  N71  1  0.881886  0.118114  0.881886  1.0
  N  N72  1  0.118114  0.118114  0.118114  1.0
  N  N73  1  0.382756  0.878384  0.133341  1.0
  N  N74  1  0.121616  0.866659  0.382756  1.0
  N  N75  1  0.133341  0.617244  0.121616  1.0
  N  N76  1  0.617244  0.121616  0.133341  1.0
  N  N77  1  0.878384  0.133341  0.382756  1.0
  N  N78  1  0.866659  0.382756  0.121616  1.0
  N  N79  1  0.382756  0.121616  0.866659  1.0
  N  N80  1  0.121616  0.133341  0.617244  1.0
  N  N81  1  0.133341  0.382756  0.878384  1.0
  N  N82  1  0.617244  0.878384  0.866659  1.0
  N  N83  1  0.878384  0.866659  0.617244  1.0
  N  N84  1  0.866659  0.617244  0.878384  1.0
  N  N85  1  0.882756  0.633341  0.378384  1.0
  N  N86  1  0.621616  0.882756  0.366659  1.0
  N  N87  1  0.633341  0.621616  0.117244  1.0
  N  N88  1  0.117244  0.633341  0.621616  1.0
  N  N89  1  0.378384  0.882756  0.633341  1.0
  N  N90  1  0.366659  0.621616  0.882756  1.0
  N  N91  1  0.882756  0.366659  0.621616  1.0
  N  N92  1  0.621616  0.117244  0.633341  1.0
  N  N93  1  0.633341  0.378384  0.882756  1.0
  N  N94  1  0.117244  0.366659  0.378384  1.0
  N  N95  1  0.378384  0.117244  0.366659  1.0
  N  N96  1  0.366659  0.378384  0.117244  1.0
