# generated using pymatgen
data_Na6WN4
_symmetry_space_group_name_H-M   'P 1'
_cell_length_a   7.52857700
_cell_length_b   7.52857700
_cell_length_c   5.81955800
_cell_angle_alpha   90.00000000
_cell_angle_beta   90.00000000
_cell_angle_gamma   90.00000000
_symmetry_Int_Tables_number   1
_chemical_formula_structural   Na6WN4
_chemical_formula_sum   'Na12 W2 N8'
_cell_volume   329.84947265
_cell_formula_units_Z   2
loop_
 _symmetry_equiv_pos_site_id
 _symmetry_equiv_pos_as_xyz
  1  'x, y, z'
loop_
 _atom_site_type_symbol
 _atom_site_label
 _atom_site_symmetry_multiplicity
 _atom_site_fract_x
 _atom_site_fract_y
 _atom_site_fract_z
 _atom_site_occupancy
  Na  Na1  1  0.000000  0.500000  0.637463  1.0
  Na  Na2  1  0.500000  0.000000  0.862537  1.0
  Na  Na3  1  0.500000  0.000000  0.362537  1.0
  Na  Na4  1  0.000000  0.500000  0.137463  1.0
  Na  Na5  1  0.205943  0.205943  0.500000  1.0
  Na  Na6  1  0.794057  0.794057  0.500000  1.0
  Na  Na7  1  0.705943  0.705943  0.000000  1.0
  Na  Na8  1  0.294057  0.294057  0.000000  1.0
  Na  Na9  1  0.794057  0.205943  0.500000  1.0
  Na  Na10  1  0.205943  0.794057  0.500000  1.0
  Na  Na11  1  0.294057  0.705943  0.000000  1.0
  Na  Na12  1  0.705943  0.294057  0.000000  1.0
  W  W13  1  0.500000  0.500000  0.500000  1.0
  W  W14  1  0.000000  0.000000  0.000000  1.0
  N  N15  1  0.284670  0.500000  0.324037  1.0
  N  N16  1  0.715330  0.500000  0.324037  1.0
  N  N17  1  0.784670  0.000000  0.175963  1.0
  N  N18  1  0.215330  0.000000  0.175963  1.0
  N  N19  1  0.500000  0.284670  0.675963  1.0
  N  N20  1  0.500000  0.715330  0.675963  1.0
  N  N21  1  0.000000  0.784670  0.824037  1.0
  N  N22  1  0.000000  0.215330  0.824037  1.0
