# generated using pymatgen
data_Li2GeN2
_symmetry_space_group_name_H-M   'P 1'
_cell_length_a   5.60542141
_cell_length_b   6.68407100
_cell_length_c   5.54928783
_cell_angle_alpha   90.00000000
_cell_angle_beta   92.33727082
_cell_angle_gamma   90.00000000
_symmetry_Int_Tables_number   1
_chemical_formula_structural   Li2GeN2
_chemical_formula_sum   'Li8 Ge4 N8'
_cell_volume   207.74239027
_cell_formula_units_Z   4
loop_
 _symmetry_equiv_pos_site_id
 _symmetry_equiv_pos_as_xyz
  1  'x, y, z'
loop_
 _atom_site_type_symbol
 _atom_site_label
 _atom_site_symmetry_multiplicity
 _atom_site_fract_x
 _atom_site_fract_y
 _atom_site_fract_z
 _atom_site_occupancy
  Li  Li1  1  0.316577  0.402763  0.906904  1.0
  Li  Li2  1  0.683423  0.902763  0.593096  1.0
  Li  Li3  1  0.683423  0.597237  0.093096  1.0
  Li  Li4  1  0.316577  0.097237  0.406904  1.0
  Li  Li5  1  0.053980  0.163306  0.726602  1.0
  Li  Li6  1  0.946020  0.663306  0.773398  1.0
  Li  Li7  1  0.946020  0.836694  0.273398  1.0
  Li  Li8  1  0.053980  0.336694  0.226602  1.0
  Ge  Ge9  1  0.650071  0.362290  0.574501  1.0
  Ge  Ge10  1  0.349929  0.862290  0.925499  1.0
  Ge  Ge11  1  0.349929  0.637710  0.425499  1.0
  Ge  Ge12  1  0.650071  0.137710  0.074501  1.0
  N  N13  1  0.228562  0.851153  0.603634  1.0
  N  N14  1  0.771438  0.351153  0.896366  1.0
  N  N15  1  0.771438  0.148847  0.396366  1.0
  N  N16  1  0.228562  0.648847  0.103634  1.0
  N  N17  1  0.303100  0.377637  0.549489  1.0
  N  N18  1  0.696900  0.877637  0.950511  1.0
  N  N19  1  0.696900  0.622363  0.450511  1.0
  N  N20  1  0.303100  0.122363  0.049489  1.0
