# generated using pymatgen
data_Cu2SnS3
_symmetry_space_group_name_H-M   'P 1'
_cell_length_a   6.69348212
_cell_length_b   6.69386729
_cell_length_c   6.72320817
_cell_angle_alpha   80.30268665
_cell_angle_beta   70.31153544
_cell_angle_gamma   60.00190340
_symmetry_Int_Tables_number   1
_chemical_formula_structural   Cu2SnS3
_chemical_formula_sum   'Cu4 Sn2 S6'
_cell_volume   245.63076416
_cell_formula_units_Z   2
loop_
 _symmetry_equiv_pos_site_id
 _symmetry_equiv_pos_as_xyz
  1  'x, y, z'
loop_
 _atom_site_type_symbol
 _atom_site_label
 _atom_site_symmetry_multiplicity
 _atom_site_fract_x
 _atom_site_fract_y
 _atom_site_fract_z
 _atom_site_occupancy
  Cu  Cu1  1  0.441797  0.163002  0.986448  1.0
  Cu  Cu2  1  0.262639  0.496059  0.487983  1.0
  Cu  Cu3  1  0.604799  0.836998  0.486448  1.0
  Cu  Cu4  1  0.758698  0.503941  0.987983  1.0
  Sn  Sn5  1  0.908790  0.185161  0.504374  1.0
  Sn  Sn6  1  0.093951  0.814839  0.004374  1.0
  S  S7  1  0.243739  0.816956  0.603341  1.0
  S  S8  1  0.060694  0.183044  0.103341  1.0
  S  S9  1  0.406788  0.477127  0.124077  1.0
  S  S10  1  0.883915  0.522873  0.624077  1.0
  S  S11  1  0.699072  0.830647  0.122776  1.0
  S  S12  1  0.529720  0.169353  0.622776  1.0
