# generated using pymatgen
data_InAgSe2
_symmetry_space_group_name_H-M   'P 1'
_cell_length_a   6.21819754
_cell_length_b   6.21819754
_cell_length_c   7.44295020
_cell_angle_alpha   114.69097589
_cell_angle_beta   114.69097585
_cell_angle_gamma   90.00000000
_symmetry_Int_Tables_number   1
_chemical_formula_structural   InAgSe2
_chemical_formula_sum   'In2 Ag2 Se4'
_cell_volume   232.20367661
_cell_formula_units_Z   2
loop_
 _symmetry_equiv_pos_site_id
 _symmetry_equiv_pos_as_xyz
  1  'x, y, z'
loop_
 _atom_site_type_symbol
 _atom_site_label
 _atom_site_symmetry_multiplicity
 _atom_site_fract_x
 _atom_site_fract_y
 _atom_site_fract_z
 _atom_site_occupancy
  In  In1  1  0.500000  0.500000  0.000000  1.0
  In  In2  1  0.750000  0.250000  0.500000  1.0
  Ag  Ag3  1  0.250000  0.750000  0.500000  1.0
  Ag  Ag4  1  0.000000  0.000000  0.000000  1.0
  Se  Se5  1  0.870729  0.875000  0.250000  1.0
  Se  Se6  1  0.625000  0.129271  0.750000  1.0
  Se  Se7  1  0.379271  0.375000  0.250000  1.0
  Se  Se8  1  0.125000  0.620729  0.750000  1.0
