# generated using pymatgen
data_Ga2HgS4
_symmetry_space_group_name_H-M   'P 1'
_cell_length_a   5.64816293
_cell_length_b   5.64816292
_cell_length_c   6.55861437
_cell_angle_alpha   115.50508336
_cell_angle_beta   115.50508338
_cell_angle_gamma   89.99999994
_symmetry_Int_Tables_number   1
_chemical_formula_structural   Ga2HgS4
_chemical_formula_sum   'Ga2 Hg1 S4'
_cell_volume   165.96436132
_cell_formula_units_Z   1
loop_
 _symmetry_equiv_pos_site_id
 _symmetry_equiv_pos_as_xyz
  1  'x, y, z'
loop_
 _atom_site_type_symbol
 _atom_site_label
 _atom_site_symmetry_multiplicity
 _atom_site_fract_x
 _atom_site_fract_y
 _atom_site_fract_z
 _atom_site_occupancy
  Ga  Ga1  1  0.250000  0.750000  0.500000  1.0
  Ga  Ga2  1  0.500000  0.500000  0.000000  1.0
  Hg  Hg3  1  0.000000  0.000000  0.000000  1.0
  S  S4  1  0.867251  0.863073  0.273092  1.0
  S  S5  1  0.589981  0.132749  0.726908  1.0
  S  S6  1  0.136927  0.594159  0.726908  1.0
  S  S7  1  0.405841  0.410019  0.273092  1.0
