# generated using pymatgen
data_BeSO4
_symmetry_space_group_name_H-M   'P 1'
_cell_length_a   4.59680054
_cell_length_b   4.59680054
_cell_length_c   4.76455224
_cell_angle_alpha   118.84199659
_cell_angle_beta   118.84199665
_cell_angle_gamma   90.00000005
_symmetry_Int_Tables_number   1
_chemical_formula_structural   BeSO4
_chemical_formula_sum   'Be1 S1 O4'
_cell_volume   73.61108278
_cell_formula_units_Z   1
loop_
 _symmetry_equiv_pos_site_id
 _symmetry_equiv_pos_as_xyz
  1  'x, y, z'
loop_
 _atom_site_type_symbol
 _atom_site_label
 _atom_site_symmetry_multiplicity
 _atom_site_fract_x
 _atom_site_fract_y
 _atom_site_fract_z
 _atom_site_occupancy
  Be  Be1  1  0.250000  0.750000  0.500000  1.0
  S  S2  1  0.000000  0.000000  0.000000  1.0
  O  O3  1  0.114166  0.753277  0.760375  1.0
  O  O4  1  0.246723  0.353791  0.239625  1.0
  O  O5  1  0.646209  0.007098  0.760375  1.0
  O  O6  1  0.992902  0.885834  0.239625  1.0
