# generated using pymatgen
data_K2CN2
_symmetry_space_group_name_H-M   'P 1'
_cell_length_a   5.81889100
_cell_length_b   5.76982600
_cell_length_c   5.91792972
_cell_angle_alpha   90.00000000
_cell_angle_beta   109.54386728
_cell_angle_gamma   90.00000000
_symmetry_Int_Tables_number   1
_chemical_formula_structural   K2CN2
_chemical_formula_sum   'K4 C2 N4'
_cell_volume   187.24119436
_cell_formula_units_Z   2
loop_
 _symmetry_equiv_pos_site_id
 _symmetry_equiv_pos_as_xyz
  1  'x, y, z'
loop_
 _atom_site_type_symbol
 _atom_site_label
 _atom_site_symmetry_multiplicity
 _atom_site_fract_x
 _atom_site_fract_y
 _atom_site_fract_z
 _atom_site_occupancy
  K  K1  1  0.824734  0.500000  0.708093  1.0
  K  K2  1  0.175266  0.500000  0.291907  1.0
  K  K3  1  0.324734  0.000000  0.708093  1.0
  K  K4  1  0.675266  0.000000  0.291907  1.0
  C  C5  1  0.000000  0.000000  0.000000  1.0
  C  C6  1  0.500000  0.500000  0.000000  1.0
  N  N7  1  0.652390  0.500000  0.206453  1.0
  N  N8  1  0.347610  0.500000  0.793547  1.0
  N  N9  1  0.152390  0.000000  0.206453  1.0
  N  N10  1  0.847610  0.000000  0.793547  1.0
