# generated using pymatgen
data_ZnSnP2
_symmetry_space_group_name_H-M   'P 1'
_cell_length_a   5.70658741
_cell_length_b   5.70658740
_cell_length_c   6.99923503
_cell_angle_alpha   114.05779464
_cell_angle_beta   114.05779461
_cell_angle_gamma   90.00000003
_symmetry_Int_Tables_number   1
_chemical_formula_structural   ZnSnP2
_chemical_formula_sum   'Zn2 Sn2 P4'
_cell_volume   186.23935160
_cell_formula_units_Z   2
loop_
 _symmetry_equiv_pos_site_id
 _symmetry_equiv_pos_as_xyz
  1  'x, y, z'
loop_
 _atom_site_type_symbol
 _atom_site_label
 _atom_site_symmetry_multiplicity
 _atom_site_fract_x
 _atom_site_fract_y
 _atom_site_fract_z
 _atom_site_occupancy
  Zn  Zn1  1  0.250000  0.750000  0.500000  1.0
  Zn  Zn2  1  0.000000  0.000000  0.000000  1.0
  Sn  Sn3  1  0.750000  0.250000  0.500000  1.0
  Sn  Sn4  1  0.500000  0.500000  0.000000  1.0
  P  P5  1  0.353448  0.375000  0.250000  1.0
  P  P6  1  0.125000  0.646552  0.750000  1.0
  P  P7  1  0.625000  0.103448  0.750000  1.0
  P  P8  1  0.896552  0.875000  0.250000  1.0
