# generated using pymatgen
data_Er(CoB)2
_symmetry_space_group_name_H-M   'P 1'
_cell_length_a   3.53904765
_cell_length_b   3.53904749
_cell_length_c   5.24589365
_cell_angle_alpha   109.71343457
_cell_angle_beta   109.71343361
_cell_angle_gamma   89.99999900
_symmetry_Int_Tables_number   1
_chemical_formula_structural   Er(CoB)2
_chemical_formula_sum   'Er1 Co2 B2'
_cell_volume   57.74621073
_cell_formula_units_Z   1
loop_
 _symmetry_equiv_pos_site_id
 _symmetry_equiv_pos_as_xyz
  1  'x, y, z'
loop_
 _atom_site_type_symbol
 _atom_site_label
 _atom_site_symmetry_multiplicity
 _atom_site_fract_x
 _atom_site_fract_y
 _atom_site_fract_z
 _atom_site_occupancy
  Er  Er1  1  0.000000  0.000000  0.000000  1.0
  Co  Co2  1  0.250000  0.750000  0.500000  1.0
  Co  Co3  1  0.750000  0.250000  0.500000  1.0
  B  B4  1  0.353284  0.353284  0.706567  1.0
  B  B5  1  0.646716  0.646716  0.293433  1.0
