# generated using pymatgen
data_LiGaTe2
_symmetry_space_group_name_H-M   'P 1'
_cell_length_a   6.40846136
_cell_length_b   6.40846137
_cell_length_c   7.52258805
_cell_angle_alpha   115.21067798
_cell_angle_beta   115.21067798
_cell_angle_gamma   89.99999996
_symmetry_Int_Tables_number   1
_chemical_formula_structural   LiGaTe2
_chemical_formula_sum   'Li2 Ga2 Te4'
_cell_volume   246.59890784
_cell_formula_units_Z   2
loop_
 _symmetry_equiv_pos_site_id
 _symmetry_equiv_pos_as_xyz
  1  'x, y, z'
loop_
 _atom_site_type_symbol
 _atom_site_label
 _atom_site_symmetry_multiplicity
 _atom_site_fract_x
 _atom_site_fract_y
 _atom_site_fract_z
 _atom_site_occupancy
  Li  Li1  1  0.750000  0.250000  0.500000  1.0
  Li  Li2  1  0.500000  0.500000  0.000000  1.0
  Ga  Ga3  1  0.250000  0.750000  0.500000  1.0
  Ga  Ga4  1  0.000000  0.000000  0.000000  1.0
  Te  Te5  1  0.889691  0.875000  0.250000  1.0
  Te  Te6  1  0.625000  0.110309  0.750000  1.0
  Te  Te7  1  0.125000  0.639691  0.750000  1.0
  Te  Te8  1  0.360309  0.375000  0.250000  1.0
