# generated using pymatgen
data_Li5SbS
_symmetry_space_group_name_H-M   'P 1'
_cell_length_a   4.29995904
_cell_length_b   6.08351558
_cell_length_c   6.41796715
_cell_angle_alpha   90.19309506
_cell_angle_beta   89.99370134
_cell_angle_gamma   45.01784354
_symmetry_Int_Tables_number   1
_chemical_formula_structural   Li5SbS
_chemical_formula_sum   'Li5 Sb1 S1'
_cell_volume   118.74941605
_cell_formula_units_Z   1
loop_
 _symmetry_equiv_pos_site_id
 _symmetry_equiv_pos_as_xyz
  1  'x, y, z'
loop_
 _atom_site_type_symbol
 _atom_site_label
 _atom_site_symmetry_multiplicity
 _atom_site_fract_x
 _atom_site_fract_y
 _atom_site_fract_z
 _atom_site_occupancy
  Li  Li1  1  0.510736  0.490372  0.499865  1.0
  Li  Li2  1  0.009916  0.990870  0.213478  1.0
  Li  Li3  1  0.997054  0.003230  0.786611  1.0
  Li  Li4  1  0.995714  0.505094  0.786957  1.0
  Li  Li5  1  0.010286  0.490660  0.213216  1.0
  Sb  Sb6  1  0.504048  0.996563  0.499958  1.0
  S  S7  1  0.502898  0.497916  0.999916  1.0
