# generated using pymatgen
data_LiGeBO4
_symmetry_space_group_name_H-M   'P 1'
_cell_length_a   4.56149343
_cell_length_b   4.56149343
_cell_length_c   4.75614414
_cell_angle_alpha   118.65516189
_cell_angle_beta   118.65516200
_cell_angle_gamma   90.00000002
_symmetry_Int_Tables_number   1
_chemical_formula_structural   LiGeBO4
_chemical_formula_sum   'Li1 Ge1 B1 O4'
_cell_volume   72.72800154
_cell_formula_units_Z   1
loop_
 _symmetry_equiv_pos_site_id
 _symmetry_equiv_pos_as_xyz
  1  'x, y, z'
loop_
 _atom_site_type_symbol
 _atom_site_label
 _atom_site_symmetry_multiplicity
 _atom_site_fract_x
 _atom_site_fract_y
 _atom_site_fract_z
 _atom_site_occupancy
  Li  Li1  1  0.500000  0.500000  0.000000  1.0
  Ge  Ge2  1  0.000000  0.000000  0.000000  1.0
  B  B3  1  0.250000  0.750000  0.500000  1.0
  O  O4  1  0.154421  0.699336  0.734803  1.0
  O  O5  1  0.580383  0.035468  0.734803  1.0
  O  O6  1  0.964532  0.845579  0.265197  1.0
  O  O7  1  0.300664  0.419617  0.265197  1.0
