# generated using pymatgen
data_ThNiSn
_symmetry_space_group_name_H-M   'P 1'
_cell_length_a   4.65495419
_cell_length_b   4.65495419
_cell_length_c   4.65495419
_cell_angle_alpha   59.99999995
_cell_angle_beta   59.99999993
_cell_angle_gamma   59.99999993
_symmetry_Int_Tables_number   1
_chemical_formula_structural   ThNiSn
_chemical_formula_sum   'Th1 Ni1 Sn1'
_cell_volume   71.32326826
_cell_formula_units_Z   1
loop_
 _symmetry_equiv_pos_site_id
 _symmetry_equiv_pos_as_xyz
  1  'x, y, z'
loop_
 _atom_site_type_symbol
 _atom_site_label
 _atom_site_symmetry_multiplicity
 _atom_site_fract_x
 _atom_site_fract_y
 _atom_site_fract_z
 _atom_site_occupancy
  Th  Th1  1  0.750000  0.750000  0.750000  1.0
  Ni  Ni2  1  0.000000  0.000000  0.000000  1.0
  Sn  Sn3  1  0.250000  0.250000  0.250000  1.0
