# generated using pymatgen
data_Ho2MgGe2
_symmetry_space_group_name_H-M   'P 1'
_cell_length_a   4.25696075
_cell_length_b   7.26264183
_cell_length_c   7.26264183
_cell_angle_alpha   90.00000000
_cell_angle_beta   90.00000000
_cell_angle_gamma   90.00000000
_symmetry_Int_Tables_number   1
_chemical_formula_structural   Ho2MgGe2
_chemical_formula_sum   'Ho4 Mg2 Ge4'
_cell_volume   224.53750848
_cell_formula_units_Z   2
loop_
 _symmetry_equiv_pos_site_id
 _symmetry_equiv_pos_as_xyz
  1  'x, y, z'
loop_
 _atom_site_type_symbol
 _atom_site_label
 _atom_site_symmetry_multiplicity
 _atom_site_fract_x
 _atom_site_fract_y
 _atom_site_fract_z
 _atom_site_occupancy
  Ho  Ho1  1  0.500000  0.177286  0.677286  1.0
  Ho  Ho2  1  0.500000  0.822714  0.322714  1.0
  Ho  Ho3  1  0.500000  0.322714  0.177286  1.0
  Ho  Ho4  1  0.500000  0.677286  0.822714  1.0
  Mg  Mg5  1  0.000000  0.500000  0.500000  1.0
  Mg  Mg6  1  0.000000  0.000000  0.000000  1.0
  Ge  Ge7  1  0.000000  0.375908  0.875908  1.0
  Ge  Ge8  1  0.000000  0.624092  0.124092  1.0
  Ge  Ge9  1  0.000000  0.124092  0.375908  1.0
  Ge  Ge10  1  0.000000  0.875908  0.624092  1.0
