# generated using pymatgen
data_FeBiO3
_symmetry_space_group_name_H-M   'P 1'
_cell_length_a   4.07634421
_cell_length_b   4.07634421
_cell_length_c   4.07634426
_cell_angle_alpha   88.31297862
_cell_angle_beta   88.31297862
_cell_angle_gamma   88.31298659
_symmetry_Int_Tables_number   1
_chemical_formula_structural   FeBiO3
_chemical_formula_sum   'Fe1 Bi1 O3'
_cell_volume   67.64852352
_cell_formula_units_Z   1
loop_
 _symmetry_equiv_pos_site_id
 _symmetry_equiv_pos_as_xyz
  1  'x, y, z'
loop_
 _atom_site_type_symbol
 _atom_site_label
 _atom_site_symmetry_multiplicity
 _atom_site_fract_x
 _atom_site_fract_y
 _atom_site_fract_z
 _atom_site_occupancy
  Fe  Fe1  1  0.953467  0.953467  0.953467  1.0
  Bi  Bi2  1  0.530937  0.530937  0.530937  1.0
  O  O3  1  0.905425  0.431886  0.905425  1.0
  O  O4  1  0.431886  0.905425  0.905425  1.0
  O  O5  1  0.905425  0.905425  0.431886  1.0
