# generated using pymatgen
data_NbSbRu
_symmetry_space_group_name_H-M   'P 1'
_cell_length_a   4.38556632
_cell_length_b   4.38556628
_cell_length_c   4.38556687
_cell_angle_alpha   59.99999564
_cell_angle_beta   59.99999595
_cell_angle_gamma   59.99999694
_symmetry_Int_Tables_number   1
_chemical_formula_structural   NbSbRu
_chemical_formula_sum   'Nb1 Sb1 Ru1'
_cell_volume   59.64335484
_cell_formula_units_Z   1
loop_
 _symmetry_equiv_pos_site_id
 _symmetry_equiv_pos_as_xyz
  1  'x, y, z'
loop_
 _atom_site_type_symbol
 _atom_site_label
 _atom_site_symmetry_multiplicity
 _atom_site_fract_x
 _atom_site_fract_y
 _atom_site_fract_z
 _atom_site_occupancy
  Nb  Nb1  1  0.000000  0.000000  0.000000  1.0
  Sb  Sb2  1  0.500000  0.500000  0.500000  1.0
  Ru  Ru3  1  0.250000  0.250000  0.250000  1.0
