# generated using pymatgen
data_AlBiO3
_symmetry_space_group_name_H-M   'P 1'
_cell_length_a   5.45999306
_cell_length_b   5.46000398
_cell_length_c   5.46000392
_cell_angle_alpha   59.45696948
_cell_angle_beta   59.45720474
_cell_angle_gamma   59.45720221
_symmetry_Int_Tables_number   1
_chemical_formula_structural   AlBiO3
_chemical_formula_sum   'Al2 Bi2 O6'
_cell_volume   113.67533364
_cell_formula_units_Z   2
loop_
 _symmetry_equiv_pos_site_id
 _symmetry_equiv_pos_as_xyz
  1  'x, y, z'
loop_
 _atom_site_type_symbol
 _atom_site_label
 _atom_site_symmetry_multiplicity
 _atom_site_fract_x
 _atom_site_fract_y
 _atom_site_fract_z
 _atom_site_occupancy
  Al  Al1  1  0.721390  0.721390  0.721391  1.0
  Al  Al2  1  0.221390  0.221390  0.221390  1.0
  Bi  Bi3  1  0.994416  0.994415  0.994416  1.0
  Bi  Bi4  1  0.494417  0.494415  0.494415  1.0
  O  O5  1  0.450126  0.915619  0.014949  1.0
  O  O6  1  0.950125  0.514950  0.415619  1.0
  O  O7  1  0.014950  0.450126  0.915619  1.0
  O  O8  1  0.514949  0.415619  0.950126  1.0
  O  O9  1  0.415619  0.950125  0.514950  1.0
  O  O10  1  0.915618  0.014952  0.450124  1.0
