# generated using pymatgen
data_FeF3
_symmetry_space_group_name_H-M   'P 1'
_cell_length_a   5.52941687
_cell_length_b   5.52941656
_cell_length_c   6.77600723
_cell_angle_alpha   90.00000000
_cell_angle_beta   90.00000000
_cell_angle_gamma   119.99999591
_symmetry_Int_Tables_number   1
_chemical_formula_structural   FeF3
_chemical_formula_sum   'Fe3 F9'
_cell_volume   179.41681894
_cell_formula_units_Z   3
loop_
 _symmetry_equiv_pos_site_id
 _symmetry_equiv_pos_as_xyz
  1  'x, y, z'
loop_
 _atom_site_type_symbol
 _atom_site_label
 _atom_site_symmetry_multiplicity
 _atom_site_fract_x
 _atom_site_fract_y
 _atom_site_fract_z
 _atom_site_occupancy
  Fe  Fe1  1  0.666667  0.333333  0.333282  1.0
  Fe  Fe2  1  0.333333  0.666667  0.666718  1.0
  Fe  Fe3  1  0.000000  0.000000  0.000000  1.0
  F  F4  1  0.666643  0.836699  0.833274  1.0
  F  F5  1  0.163301  0.829944  0.833274  1.0
  F  F6  1  0.170056  0.333357  0.833274  1.0
  F  F7  1  0.507098  0.507098  0.500000  1.0
  F  F8  1  0.492902  0.000000  0.500000  1.0
  F  F9  1  0.000000  0.492902  0.500000  1.0
  F  F10  1  0.836699  0.666643  0.166726  1.0
  F  F11  1  0.333357  0.170056  0.166726  1.0
  F  F12  1  0.829944  0.163301  0.166726  1.0
