# generated using pymatgen
data_BaTiO3
_symmetry_space_group_name_H-M   'P 1'
_cell_length_a   4.08113072
_cell_length_b   4.08113068
_cell_length_c   4.08113031
_cell_angle_alpha   89.66458353
_cell_angle_beta   89.66458343
_cell_angle_gamma   89.66458614
_symmetry_Int_Tables_number   1
_chemical_formula_structural   BaTiO3
_chemical_formula_sum   'Ba1 Ti1 O3'
_cell_volume   67.97030674
_cell_formula_units_Z   1
loop_
 _symmetry_equiv_pos_site_id
 _symmetry_equiv_pos_as_xyz
  1  'x, y, z'
loop_
 _atom_site_type_symbol
 _atom_site_label
 _atom_site_symmetry_multiplicity
 _atom_site_fract_x
 _atom_site_fract_y
 _atom_site_fract_z
 _atom_site_occupancy
  Ba  Ba1  1  0.997931  0.997931  0.997931  1.0
  Ti  Ti2  1  0.483560  0.483560  0.483560  1.0
  O  O3  1  0.026247  0.515381  0.515381  1.0
  O  O4  1  0.515381  0.026247  0.515381  1.0
  O  O5  1  0.515381  0.515381  0.026247  1.0
