# generated using pymatgen
data_HfFe2Sn
_symmetry_space_group_name_H-M   'P 1'
_cell_length_a   4.39343092
_cell_length_b   4.39344877
_cell_length_c   4.39345292
_cell_angle_alpha   59.99992669
_cell_angle_beta   60.00000799
_cell_angle_gamma   60.00011026
_symmetry_Int_Tables_number   1
_chemical_formula_structural   HfFe2Sn
_chemical_formula_sum   'Hf1 Fe2 Sn1'
_cell_volume   59.96536692
_cell_formula_units_Z   1
loop_
 _symmetry_equiv_pos_site_id
 _symmetry_equiv_pos_as_xyz
  1  'x, y, z'
loop_
 _atom_site_type_symbol
 _atom_site_label
 _atom_site_symmetry_multiplicity
 _atom_site_fract_x
 _atom_site_fract_y
 _atom_site_fract_z
 _atom_site_occupancy
  Hf  Hf1  1  0.249991  0.250008  0.250004  1.0
  Fe  Fe2  1  0.000002  0.999997  0.999999  1.0
  Fe  Fe3  1  0.500002  0.499997  0.499998  1.0
  Sn  Sn4  1  0.750004  0.749997  0.749998  1.0
