# generated using pymatgen
data_Li2CN2
_symmetry_space_group_name_H-M   'P 1'
_cell_length_a   3.71873784
_cell_length_b   3.71873784
_cell_length_c   5.10545314
_cell_angle_alpha   111.35791040
_cell_angle_beta   111.35791049
_cell_angle_gamma   89.99999990
_symmetry_Int_Tables_number   1
_chemical_formula_structural   Li2CN2
_chemical_formula_sum   'Li2 C1 N2'
_cell_volume   60.51854969
_cell_formula_units_Z   1
loop_
 _symmetry_equiv_pos_site_id
 _symmetry_equiv_pos_as_xyz
  1  'x, y, z'
loop_
 _atom_site_type_symbol
 _atom_site_label
 _atom_site_symmetry_multiplicity
 _atom_site_fract_x
 _atom_site_fract_y
 _atom_site_fract_z
 _atom_site_occupancy
  Li  Li1  1  0.750000  0.250000  0.500000  1.0
  Li  Li2  1  0.250000  0.750000  0.500000  1.0
  C  C3  1  0.000000  0.000000  0.000000  1.0
  N  N4  1  0.141405  0.141405  0.282809  1.0
  N  N5  1  0.858595  0.858595  0.717191  1.0
