# generated using pymatgen
data_LiAlTe2
_symmetry_space_group_name_H-M   'P 1'
_cell_length_a   6.42137699
_cell_length_b   6.42137699
_cell_length_c   7.49403631
_cell_angle_alpha   115.36812192
_cell_angle_beta   115.36812189
_cell_angle_gamma   90.00000000
_symmetry_Int_Tables_number   1
_chemical_formula_structural   LiAlTe2
_chemical_formula_sum   'Li2 Al2 Te4'
_cell_volume   245.83101171
_cell_formula_units_Z   2
loop_
 _symmetry_equiv_pos_site_id
 _symmetry_equiv_pos_as_xyz
  1  'x, y, z'
loop_
 _atom_site_type_symbol
 _atom_site_label
 _atom_site_symmetry_multiplicity
 _atom_site_fract_x
 _atom_site_fract_y
 _atom_site_fract_z
 _atom_site_occupancy
  Li  Li1  1  0.750000  0.250000  0.500000  1.0
  Li  Li2  1  0.500000  0.500000  0.000000  1.0
  Al  Al3  1  0.250000  0.750000  0.500000  1.0
  Al  Al4  1  0.000000  0.000000  0.000000  1.0
  Te  Te5  1  0.892860  0.875000  0.250000  1.0
  Te  Te6  1  0.625000  0.107140  0.750000  1.0
  Te  Te7  1  0.125000  0.642860  0.750000  1.0
  Te  Te8  1  0.357140  0.375000  0.250000  1.0
