# generated using pymatgen
data_BaPdF4
_symmetry_space_group_name_H-M   'P 1'
_cell_length_a   6.28141007
_cell_length_b   6.28141007
_cell_length_c   7.09123276
_cell_angle_alpha   116.28904189
_cell_angle_beta   116.28904191
_cell_angle_gamma   89.99999993
_symmetry_Int_Tables_number   1
_chemical_formula_structural   BaPdF4
_chemical_formula_sum   'Ba2 Pd2 F8'
_cell_volume   218.10889936
_cell_formula_units_Z   2
loop_
 _symmetry_equiv_pos_site_id
 _symmetry_equiv_pos_as_xyz
  1  'x, y, z'
loop_
 _atom_site_type_symbol
 _atom_site_label
 _atom_site_symmetry_multiplicity
 _atom_site_fract_x
 _atom_site_fract_y
 _atom_site_fract_z
 _atom_site_occupancy
  Ba  Ba1  1  0.750000  0.750000  0.500000  1.0
  Ba  Ba2  1  0.250000  0.250000  0.500000  1.0
  Pd  Pd3  1  0.500000  0.000000  0.000000  1.0
  Pd  Pd4  1  0.000000  0.500000  0.000000  1.0
  F  F5  1  0.967262  0.467262  0.256076  1.0
  F  F6  1  0.711186  0.211186  0.743924  1.0
  F  F7  1  0.032738  0.532738  0.743924  1.0
  F  F8  1  0.211186  0.032738  0.743924  1.0
  F  F9  1  0.288814  0.788814  0.256076  1.0
  F  F10  1  0.467262  0.288814  0.256076  1.0
  F  F11  1  0.788814  0.967262  0.256076  1.0
  F  F12  1  0.532738  0.711186  0.743924  1.0
