# generated using pymatgen
data_Zr2CoSi2
_symmetry_space_group_name_H-M   'P 1'
_cell_length_a   3.89593550
_cell_length_b   5.34218561
_cell_length_c   8.56099971
_cell_angle_alpha   82.47431756
_cell_angle_beta   76.84773009
_cell_angle_gamma   68.61464905
_symmetry_Int_Tables_number   1
_chemical_formula_structural   Zr2CoSi2
_chemical_formula_sum   'Zr4 Co2 Si4'
_cell_volume   161.33213129
_cell_formula_units_Z   2
loop_
 _symmetry_equiv_pos_site_id
 _symmetry_equiv_pos_as_xyz
  1  'x, y, z'
loop_
 _atom_site_type_symbol
 _atom_site_label
 _atom_site_symmetry_multiplicity
 _atom_site_fract_x
 _atom_site_fract_y
 _atom_site_fract_z
 _atom_site_occupancy
  Zr  Zr1  1  0.812611  0.272509  0.102269  1.0
  Zr  Zr2  1  0.187389  0.727491  0.897731  1.0
  Zr  Zr3  1  0.996778  0.330675  0.675770  1.0
  Zr  Zr4  1  0.003222  0.669325  0.324230  1.0
  Co  Co5  1  0.277184  0.072953  0.372679  1.0
  Co  Co6  1  0.722816  0.927047  0.627321  1.0
  Si  Si7  1  0.643681  0.281619  0.431018  1.0
  Si  Si8  1  0.356319  0.718381  0.568982  1.0
  Si  Si9  1  0.512660  0.851118  0.123562  1.0
  Si  Si10  1  0.487340  0.148882  0.876438  1.0
