# generated using pymatgen
data_Na2CN2
_symmetry_space_group_name_H-M   'P 1'
_cell_length_a   5.05533984
_cell_length_b   5.01129306
_cell_length_c   5.58420076
_cell_angle_alpha   90.00000000
_cell_angle_beta   110.04843230
_cell_angle_gamma   90.00000000
_symmetry_Int_Tables_number   1
_chemical_formula_structural   Na2CN2
_chemical_formula_sum   'Na4 C2 N4'
_cell_volume   132.89639606
_cell_formula_units_Z   2
loop_
 _symmetry_equiv_pos_site_id
 _symmetry_equiv_pos_as_xyz
  1  'x, y, z'
loop_
 _atom_site_type_symbol
 _atom_site_label
 _atom_site_symmetry_multiplicity
 _atom_site_fract_x
 _atom_site_fract_y
 _atom_site_fract_z
 _atom_site_occupancy
  Na  Na1  1  0.174593  0.500000  0.309427  1.0
  Na  Na2  1  0.825407  0.500000  0.690573  1.0
  Na  Na3  1  0.674593  0.000000  0.309427  1.0
  Na  Na4  1  0.325407  0.000000  0.690573  1.0
  C  C5  1  0.000000  0.000000  0.000000  1.0
  C  C6  1  0.500000  0.500000  0.000000  1.0
  N  N7  1  0.344677  0.500000  0.772570  1.0
  N  N8  1  0.655323  0.500000  0.227430  1.0
  N  N9  1  0.844677  0.000000  0.772570  1.0
  N  N10  1  0.155323  0.000000  0.227430  1.0
