# generated using pymatgen
data_Ca4Bi2O
_symmetry_space_group_name_H-M   'P 1'
_cell_length_a   4.76435112
_cell_length_b   4.76435159
_cell_length_c   9.00142690
_cell_angle_alpha   105.34581296
_cell_angle_beta   105.34581489
_cell_angle_gamma   90.00000235
_symmetry_Int_Tables_number   1
_chemical_formula_structural   Ca4Bi2O
_chemical_formula_sum   'Ca4 Bi2 O1'
_cell_volume   189.47402424
_cell_formula_units_Z   1
loop_
 _symmetry_equiv_pos_site_id
 _symmetry_equiv_pos_as_xyz
  1  'x, y, z'
loop_
 _atom_site_type_symbol
 _atom_site_label
 _atom_site_symmetry_multiplicity
 _atom_site_fract_x
 _atom_site_fract_y
 _atom_site_fract_z
 _atom_site_occupancy
  Ca  Ca1  1  0.335625  0.335625  0.671251  1.0
  Ca  Ca2  1  0.000001  0.500001  0.000002  1.0
  Ca  Ca3  1  0.664374  0.664374  0.328749  1.0
  Ca  Ca4  1  0.499999  0.999999  0.999998  1.0
  Bi  Bi5  1  0.140499  0.140499  0.280999  1.0
  Bi  Bi6  1  0.859501  0.859501  0.719001  1.0
  O  O7  1  0.500000  0.500000  0.000000  1.0
