# generated using pymatgen
data_LiCuS2
_symmetry_space_group_name_H-M   'P 1'
_cell_length_a   4.23037112
_cell_length_b   3.42110553
_cell_length_c   6.05899330
_cell_angle_alpha   89.96326469
_cell_angle_beta   64.99174111
_cell_angle_gamma   66.04778909
_symmetry_Int_Tables_number   1
_chemical_formula_structural   LiCuS2
_chemical_formula_sum   'Li1 Cu1 S2'
_cell_volume   71.05994334
_cell_formula_units_Z   1
loop_
 _symmetry_equiv_pos_site_id
 _symmetry_equiv_pos_as_xyz
  1  'x, y, z'
loop_
 _atom_site_type_symbol
 _atom_site_label
 _atom_site_symmetry_multiplicity
 _atom_site_fract_x
 _atom_site_fract_y
 _atom_site_fract_z
 _atom_site_occupancy
  Li  Li1  1  0.999728  0.501935  0.000608  1.0
  Cu  Cu2  1  0.999282  0.501161  0.500815  1.0
  S  S3  1  0.746053  0.127994  0.766273  1.0
  S  S4  1  0.252637  0.874530  0.235434  1.0
