# generated using pymatgen
data_La(BiO2)2
_symmetry_space_group_name_H-M   'P 1'
_cell_length_a   4.03073639
_cell_length_b   9.57634107
_cell_length_c   4.03073661
_cell_angle_alpha   102.14888969
_cell_angle_beta   60.00000191
_cell_angle_gamma   102.14889123
_symmetry_Int_Tables_number   1
_chemical_formula_structural   La(BiO2)2
_chemical_formula_sum   'La1 Bi2 O4'
_cell_volume   130.70176266
_cell_formula_units_Z   1
loop_
 _symmetry_equiv_pos_site_id
 _symmetry_equiv_pos_as_xyz
  1  'x, y, z'
loop_
 _atom_site_type_symbol
 _atom_site_label
 _atom_site_symmetry_multiplicity
 _atom_site_fract_x
 _atom_site_fract_y
 _atom_site_fract_z
 _atom_site_occupancy
  La  La1  1  0.000000  0.000000  0.000000  1.0
  Bi  Bi2  1  0.222730  0.668192  0.222730  1.0
  Bi  Bi3  1  0.777270  0.331808  0.777270  1.0
  O  O4  1  0.299961  0.899882  0.299961  1.0
  O  O5  1  0.095697  0.287093  0.095697  1.0
  O  O6  1  0.700039  0.100118  0.700039  1.0
  O  O7  1  0.904303  0.712907  0.904303  1.0
