# generated using pymatgen
data_RbCaAs
_symmetry_space_group_name_H-M   'P 1'
_cell_length_a   5.17641042
_cell_length_b   5.17641042
_cell_length_c   8.01546366
_cell_angle_alpha   90.00000000
_cell_angle_beta   90.00000000
_cell_angle_gamma   90.00000000
_symmetry_Int_Tables_number   1
_chemical_formula_structural   RbCaAs
_chemical_formula_sum   'Rb2 Ca2 As2'
_cell_volume   214.77615094
_cell_formula_units_Z   2
loop_
 _symmetry_equiv_pos_site_id
 _symmetry_equiv_pos_as_xyz
  1  'x, y, z'
loop_
 _atom_site_type_symbol
 _atom_site_label
 _atom_site_symmetry_multiplicity
 _atom_site_fract_x
 _atom_site_fract_y
 _atom_site_fract_z
 _atom_site_occupancy
  Rb  Rb1  1  0.750000  0.750000  0.372972  1.0
  Rb  Rb2  1  0.250000  0.250000  0.627028  1.0
  Ca  Ca3  1  0.250000  0.750000  0.000000  1.0
  Ca  Ca4  1  0.750000  0.250000  0.000000  1.0
  As  As5  1  0.250000  0.250000  0.185108  1.0
  As  As6  1  0.750000  0.750000  0.814892  1.0
