# generated using pymatgen
data_KMg6V
_symmetry_space_group_name_H-M   'P 1'
_cell_length_a   7.67513662
_cell_length_b   10.91431490
_cell_length_c   3.45623803
_cell_angle_alpha   90.00000000
_cell_angle_beta   90.00000000
_cell_angle_gamma   135.31778742
_symmetry_Int_Tables_number   1
_chemical_formula_structural   KMg6V
_chemical_formula_sum   'K1 Mg6 V1'
_cell_volume   203.58653211
_cell_formula_units_Z   1
loop_
 _symmetry_equiv_pos_site_id
 _symmetry_equiv_pos_as_xyz
  1  'x, y, z'
loop_
 _atom_site_type_symbol
 _atom_site_label
 _atom_site_symmetry_multiplicity
 _atom_site_fract_x
 _atom_site_fract_y
 _atom_site_fract_z
 _atom_site_occupancy
  K  K1  1  0.248987  0.874492  0.250000  1.0
  Mg  Mg2  1  0.751570  0.375352  0.250000  1.0
  Mg  Mg3  1  0.751570  0.876217  0.250000  1.0
  Mg  Mg4  1  0.251195  0.164345  0.750000  1.0
  Mg  Mg5  1  0.251195  0.586850  0.750000  1.0
  Mg  Mg6  1  0.827401  0.163701  0.750000  1.0
  Mg  Mg7  1  0.669960  0.584980  0.750000  1.0
  V  V8  1  0.248122  0.374061  0.250000  1.0
