# generated using pymatgen
data_TaTiRu2
_symmetry_space_group_name_H-M   'P 1'
_cell_length_a   4.43357792
_cell_length_b   4.43357792
_cell_length_c   4.43357792
_cell_angle_alpha   59.92526557
_cell_angle_beta   59.92526557
_cell_angle_gamma   59.92526557
_symmetry_Int_Tables_number   1
_chemical_formula_structural   TaTiRu2
_chemical_formula_sum   'Ta1 Ti1 Ru2'
_cell_volume   61.51927282
_cell_formula_units_Z   1
loop_
 _symmetry_equiv_pos_site_id
 _symmetry_equiv_pos_as_xyz
  1  'x, y, z'
loop_
 _atom_site_type_symbol
 _atom_site_label
 _atom_site_symmetry_multiplicity
 _atom_site_fract_x
 _atom_site_fract_y
 _atom_site_fract_z
 _atom_site_occupancy
  Ta  Ta1  1  0.250001  0.250001  0.250001  1.0
  Ti  Ti2  1  0.750003  0.750003  0.750003  1.0
  Ru  Ru3  1  0.000009  0.000009  0.000009  1.0
  Ru  Ru4  1  0.499987  0.499987  0.499987  1.0
