# generated using pymatgen
data_ReBr
_symmetry_space_group_name_H-M   'P 1'
_cell_length_a   3.07650038
_cell_length_b   3.07650038
_cell_length_c   8.73307238
_cell_angle_alpha   90.00000000
_cell_angle_beta   90.00000000
_cell_angle_gamma   119.99998191
_symmetry_Int_Tables_number   1
_chemical_formula_structural   ReBr
_chemical_formula_sum   'Re2 Br2'
_cell_volume   71.58330018
_cell_formula_units_Z   2
loop_
 _symmetry_equiv_pos_site_id
 _symmetry_equiv_pos_as_xyz
  1  'x, y, z'
loop_
 _atom_site_type_symbol
 _atom_site_label
 _atom_site_symmetry_multiplicity
 _atom_site_fract_x
 _atom_site_fract_y
 _atom_site_fract_z
 _atom_site_occupancy
  Re  Re1  1  0.000000  0.000000  0.326593  1.0
  Re  Re2  1  0.333334  0.666666  0.826592  1.0
  Br  Br3  1  0.000000  0.000000  0.048408  1.0
  Br  Br4  1  0.333334  0.666666  0.548407  1.0
