# generated using pymatgen
data_SrMg6Ti
_symmetry_space_group_name_H-M   'P 1'
_cell_length_a   6.62507951
_cell_length_b   9.22986699
_cell_length_c   4.57826362
_cell_angle_alpha   90.00000000
_cell_angle_beta   90.00000000
_cell_angle_gamma   134.15369066
_symmetry_Int_Tables_number   1
_chemical_formula_structural   SrMg6Ti
_chemical_formula_sum   'Sr1 Mg6 Ti1'
_cell_volume   200.85997981
_cell_formula_units_Z   1
loop_
 _symmetry_equiv_pos_site_id
 _symmetry_equiv_pos_as_xyz
  1  'x, y, z'
loop_
 _atom_site_type_symbol
 _atom_site_label
 _atom_site_symmetry_multiplicity
 _atom_site_fract_x
 _atom_site_fract_y
 _atom_site_fract_z
 _atom_site_occupancy
  Sr  Sr1  1  0.249643  0.874821  0.250000  1.0
  Mg  Mg2  1  0.750571  0.374787  0.250000  1.0
  Mg  Mg3  1  0.750571  0.875783  0.250000  1.0
  Mg  Mg4  1  0.250398  0.152607  0.750000  1.0
  Mg  Mg5  1  0.250398  0.597794  0.750000  1.0
  Mg  Mg6  1  0.792868  0.146434  0.750000  1.0
  Mg  Mg7  1  0.706609  0.603306  0.750000  1.0
  Ti  Ti8  1  0.248940  0.374470  0.250000  1.0
