# generated using pymatgen
data_CaC2
_symmetry_space_group_name_H-M   'P 1'
_cell_length_a   3.84256141
_cell_length_b   4.06648138
_cell_length_c   7.46845527
_cell_angle_alpha   104.82247078
_cell_angle_beta   90.00000000
_cell_angle_gamma   118.19459355
_symmetry_Int_Tables_number   1
_chemical_formula_structural   CaC2
_chemical_formula_sum   'Ca2 C4'
_cell_volume   98.42497978
_cell_formula_units_Z   2
loop_
 _symmetry_equiv_pos_site_id
 _symmetry_equiv_pos_as_xyz
  1  'x, y, z'
loop_
 _atom_site_type_symbol
 _atom_site_label
 _atom_site_symmetry_multiplicity
 _atom_site_fract_x
 _atom_site_fract_y
 _atom_site_fract_z
 _atom_site_occupancy
  Ca  Ca1  1  0.795676  0.591352  0.752897  1.0
  Ca  Ca2  1  0.204324  0.408648  0.247103  1.0
  C  C3  1  0.079059  0.158118  0.564816  1.0
  C  C4  1  0.920941  0.841882  0.435184  1.0
  C  C5  1  0.453391  0.906781  0.059747  1.0
  C  C6  1  0.546609  0.093219  0.940253  1.0
