# generated using pymatgen
data_Ta2Co
_symmetry_space_group_name_H-M   'P 1'
_cell_length_a   4.98236923
_cell_length_b   4.99925831
_cell_length_c   4.99925831
_cell_angle_alpha   75.62225710
_cell_angle_beta   60.11169655
_cell_angle_gamma   60.11169655
_symmetry_Int_Tables_number   1
_chemical_formula_structural   Ta2Co
_chemical_formula_sum   'Ta4 Co2'
_cell_volume   93.60170273
_cell_formula_units_Z   2
loop_
 _symmetry_equiv_pos_site_id
 _symmetry_equiv_pos_as_xyz
  1  'x, y, z'
loop_
 _atom_site_type_symbol
 _atom_site_label
 _atom_site_symmetry_multiplicity
 _atom_site_fract_x
 _atom_site_fract_y
 _atom_site_fract_z
 _atom_site_occupancy
  Ta  Ta1  1  0.339058  0.500000  0.821884  1.0
  Ta  Ta2  1  0.660942  0.500000  0.178116  1.0
  Ta  Ta3  1  0.839058  0.821884  0.500000  1.0
  Ta  Ta4  1  0.160942  0.178116  0.500000  1.0
  Co  Co5  1  0.750000  0.000000  0.000000  1.0
  Co  Co6  1  0.250000  0.000000  0.000000  1.0
