# generated using pymatgen
data_InNi
_symmetry_space_group_name_H-M   'P 1'
_cell_length_a   4.37294272
_cell_length_b   5.27195441
_cell_length_c   5.27213738
_cell_angle_alpha   119.99885317
_cell_angle_beta   90.00000000
_cell_angle_gamma   90.00000000
_symmetry_Int_Tables_number   1
_chemical_formula_structural   InNi
_chemical_formula_sum   'In3 Ni3'
_cell_volume   105.26107560
_cell_formula_units_Z   3
loop_
 _symmetry_equiv_pos_site_id
 _symmetry_equiv_pos_as_xyz
  1  'x, y, z'
loop_
 _atom_site_type_symbol
 _atom_site_label
 _atom_site_symmetry_multiplicity
 _atom_site_fract_x
 _atom_site_fract_y
 _atom_site_fract_z
 _atom_site_occupancy
  In  In1  1  0.000000  0.000029  0.000000  1.0
  In  In2  1  0.500000  0.333221  0.666494  1.0
  In  In3  1  0.500000  0.666727  0.333506  1.0
  Ni  Ni4  1  0.000000  0.499977  0.000000  1.0
  Ni  Ni5  1  0.000000  0.499971  0.499995  1.0
  Ni  Ni6  1  0.000000  0.999976  0.500005  1.0
