# generated using pymatgen
data_Th2Ga
_symmetry_space_group_name_H-M   'P 1'
_cell_length_a   5.89174060
_cell_length_b   6.08288267
_cell_length_c   6.08288270
_cell_angle_alpha   76.43576004
_cell_angle_beta   61.03413422
_cell_angle_gamma   61.03413282
_symmetry_Int_Tables_number   1
_chemical_formula_structural   Th2Ga
_chemical_formula_sum   'Th4 Ga2'
_cell_volume   166.87360383
_cell_formula_units_Z   2
loop_
 _symmetry_equiv_pos_site_id
 _symmetry_equiv_pos_as_xyz
  1  'x, y, z'
loop_
 _atom_site_type_symbol
 _atom_site_label
 _atom_site_symmetry_multiplicity
 _atom_site_fract_x
 _atom_site_fract_y
 _atom_site_fract_z
 _atom_site_occupancy
  Th  Th1  1  0.158503  0.500000  0.182994  1.0
  Th  Th2  1  0.841497  0.500000  0.817006  1.0
  Th  Th3  1  0.341497  0.817006  0.500000  1.0
  Th  Th4  1  0.658503  0.182994  0.500000  1.0
  Ga  Ga5  1  0.250000  0.000000  0.000000  1.0
  Ga  Ga6  1  0.750000  0.000000  0.000000  1.0
