# generated using pymatgen
data_RhPb2
_symmetry_space_group_name_H-M   'P 1'
_cell_length_a   5.66147984
_cell_length_b   5.66147984
_cell_length_c   5.66147984
_cell_angle_alpha   106.02011704
_cell_angle_beta   106.02011704
_cell_angle_gamma   116.61866238
_symmetry_Int_Tables_number   1
_chemical_formula_structural   RhPb2
_chemical_formula_sum   'Rh2 Pb4'
_cell_volume   138.04106322
_cell_formula_units_Z   2
loop_
 _symmetry_equiv_pos_site_id
 _symmetry_equiv_pos_as_xyz
  1  'x, y, z'
loop_
 _atom_site_type_symbol
 _atom_site_label
 _atom_site_symmetry_multiplicity
 _atom_site_fract_x
 _atom_site_fract_y
 _atom_site_fract_z
 _atom_site_occupancy
  Rh  Rh1  1  0.750000  0.750000  0.000000  1.0
  Rh  Rh2  1  0.250000  0.250000  0.000000  1.0
  Pb  Pb3  1  0.832751  0.332751  0.165502  1.0
  Pb  Pb4  1  0.167249  0.667249  0.834498  1.0
  Pb  Pb5  1  0.667249  0.832751  0.500000  1.0
  Pb  Pb6  1  0.332751  0.167249  0.500000  1.0
