# generated using pymatgen
data_YCo5
_symmetry_space_group_name_H-M   'P 1'
_cell_length_a   3.96073828
_cell_length_b   4.92405449
_cell_length_c   4.92755579
_cell_angle_alpha   119.97650103
_cell_angle_beta   90.00000000
_cell_angle_gamma   90.00000000
_symmetry_Int_Tables_number   1
_chemical_formula_structural   YCo5
_chemical_formula_sum   'Y1 Co5'
_cell_volume   83.24611339
_cell_formula_units_Z   1
loop_
 _symmetry_equiv_pos_site_id
 _symmetry_equiv_pos_as_xyz
  1  'x, y, z'
loop_
 _atom_site_type_symbol
 _atom_site_label
 _atom_site_symmetry_multiplicity
 _atom_site_fract_x
 _atom_site_fract_y
 _atom_site_fract_z
 _atom_site_occupancy
  Y  Y1  1  0.000000  0.999991  0.000000  1.0
  Co  Co2  1  0.000000  0.333363  0.666835  1.0
  Co  Co3  1  0.000000  0.666528  0.333165  1.0
  Co  Co4  1  0.500000  0.500027  0.000000  1.0
  Co  Co5  1  0.500000  0.500006  0.500021  1.0
  Co  Co6  1  0.500000  0.999985  0.499979  1.0
