# generated using pymatgen
data_S
_symmetry_space_group_name_H-M   'P 1'
_cell_length_a   6.63979672
_cell_length_b   6.63979672
_cell_length_c   6.63979672
_cell_angle_alpha   113.09406568
_cell_angle_beta   113.09406567
_cell_angle_gamma   113.09406574
_symmetry_Int_Tables_number   1
_chemical_formula_structural   S
_chemical_formula_sum   S6
_cell_volume   189.19911614
_cell_formula_units_Z   6
loop_
 _symmetry_equiv_pos_site_id
 _symmetry_equiv_pos_as_xyz
  1  'x, y, z'
loop_
 _atom_site_type_symbol
 _atom_site_label
 _atom_site_symmetry_multiplicity
 _atom_site_fract_x
 _atom_site_fract_y
 _atom_site_fract_z
 _atom_site_occupancy
  S  S1  1  0.228228  0.124312  0.897566  1.0
  S  S2  1  0.897566  0.228228  0.124312  1.0
  S  S3  1  0.124312  0.897566  0.228228  1.0
  S  S4  1  0.771772  0.875688  0.102434  1.0
  S  S5  1  0.102434  0.771772  0.875688  1.0
  S  S6  1  0.875688  0.102434  0.771772  1.0
