# generated using pymatgen
data_NbSb2
_symmetry_space_group_name_H-M   'P 1'
_cell_length_a   3.67536158
_cell_length_b   5.49377045
_cell_length_c   7.58683975
_cell_angle_alpha   78.40461761
_cell_angle_beta   75.98242381
_cell_angle_gamma   70.45770272
_symmetry_Int_Tables_number   1
_chemical_formula_structural   NbSb2
_chemical_formula_sum   'Nb2 Sb4'
_cell_volume   138.85575133
_cell_formula_units_Z   2
loop_
 _symmetry_equiv_pos_site_id
 _symmetry_equiv_pos_as_xyz
  1  'x, y, z'
loop_
 _atom_site_type_symbol
 _atom_site_label
 _atom_site_symmetry_multiplicity
 _atom_site_fract_x
 _atom_site_fract_y
 _atom_site_fract_z
 _atom_site_occupancy
  Nb  Nb1  1  0.848287  0.113064  0.190362  1.0
  Nb  Nb2  1  0.151713  0.886936  0.809638  1.0
  Sb  Sb3  1  0.594994  0.698475  0.111537  1.0
  Sb  Sb4  1  0.405006  0.301525  0.888463  1.0
  Sb  Sb5  1  0.149034  0.237816  0.464115  1.0
  Sb  Sb6  1  0.850966  0.762184  0.535885  1.0
