# generated using pymatgen
data_SmScSi
_symmetry_space_group_name_H-M   'P 1'
_cell_length_a   4.26178239
_cell_length_b   4.26178239
_cell_length_c   8.42317265
_cell_angle_alpha   104.65390231
_cell_angle_beta   104.65390233
_cell_angle_gamma   90.00000002
_symmetry_Int_Tables_number   1
_chemical_formula_structural   SmScSi
_chemical_formula_sum   'Sm2 Sc2 Si2'
_cell_volume   142.86213431
_cell_formula_units_Z   2
loop_
 _symmetry_equiv_pos_site_id
 _symmetry_equiv_pos_as_xyz
  1  'x, y, z'
loop_
 _atom_site_type_symbol
 _atom_site_label
 _atom_site_symmetry_multiplicity
 _atom_site_fract_x
 _atom_site_fract_y
 _atom_site_fract_z
 _atom_site_occupancy
  Sm  Sm1  1  0.322935  0.322935  0.645871  1.0
  Sm  Sm2  1  0.677065  0.677065  0.354129  1.0
  Sc  Sc3  1  0.000000  0.500000  0.000000  1.0
  Sc  Sc4  1  0.500000  0.000000  0.000000  1.0
  Si  Si5  1  0.875978  0.875978  0.751955  1.0
  Si  Si6  1  0.124022  0.124022  0.248045  1.0
