# generated using pymatgen
data_Hg
_symmetry_space_group_name_H-M   'P 1'
_cell_length_a   6.07404767
_cell_length_b   6.24672566
_cell_length_c   6.48342961
_cell_angle_alpha   90.00000000
_cell_angle_beta   90.00000000
_cell_angle_gamma   113.49160078
_symmetry_Int_Tables_number   1
_chemical_formula_structural   Hg
_chemical_formula_sum   Hg6
_cell_volume   225.61132304
_cell_formula_units_Z   6
loop_
 _symmetry_equiv_pos_site_id
 _symmetry_equiv_pos_as_xyz
  1  'x, y, z'
loop_
 _atom_site_type_symbol
 _atom_site_label
 _atom_site_symmetry_multiplicity
 _atom_site_fract_x
 _atom_site_fract_y
 _atom_site_fract_z
 _atom_site_occupancy
  Hg  Hg1  1  0.000000  0.500000  0.500000  1.0
  Hg  Hg2  1  0.000000  0.000000  0.000000  1.0
  Hg  Hg3  1  0.583110  0.239864  0.857274  1.0
  Hg  Hg4  1  0.416890  0.260136  0.357274  1.0
  Hg  Hg5  1  0.416890  0.760136  0.142726  1.0
  Hg  Hg6  1  0.583110  0.739864  0.642726  1.0
