# generated using pymatgen
data_Bi2Pd
_symmetry_space_group_name_H-M   'P 1'
_cell_length_a   4.34016636
_cell_length_b   5.72834451
_cell_length_c   6.82069454
_cell_angle_alpha   101.98613204
_cell_angle_beta   108.47843628
_cell_angle_gamma   89.97133855
_symmetry_Int_Tables_number   1
_chemical_formula_structural   Bi2Pd
_chemical_formula_sum   'Bi4 Pd2'
_cell_volume   156.93612983
_cell_formula_units_Z   2
loop_
 _symmetry_equiv_pos_site_id
 _symmetry_equiv_pos_as_xyz
  1  'x, y, z'
loop_
 _atom_site_type_symbol
 _atom_site_label
 _atom_site_symmetry_multiplicity
 _atom_site_fract_x
 _atom_site_fract_y
 _atom_site_fract_z
 _atom_site_occupancy
  Bi  Bi1  1  0.843736  0.684201  0.687545  1.0
  Bi  Bi2  1  0.156264  0.315799  0.312455  1.0
  Bi  Bi3  1  0.424167  0.204906  0.849261  1.0
  Bi  Bi4  1  0.575833  0.795094  0.150739  1.0
  Pd  Pd5  1  0.774347  0.169905  0.549029  1.0
  Pd  Pd6  1  0.225653  0.830095  0.450971  1.0
