# generated using pymatgen
data_Ca2Al2SiO7
_symmetry_space_group_name_H-M   'P 1'
_cell_length_a   5.19082756
_cell_length_b   7.67636214
_cell_length_c   7.67636214
_cell_angle_alpha   90.00000000
_cell_angle_beta   90.00000000
_cell_angle_gamma   90.00000000
_symmetry_Int_Tables_number   1
_chemical_formula_structural   Ca2Al2SiO7
_chemical_formula_sum   'Ca4 Al4 Si2 O14'
_cell_volume   305.87748555
_cell_formula_units_Z   2
loop_
 _symmetry_equiv_pos_site_id
 _symmetry_equiv_pos_as_xyz
  1  'x, y, z'
loop_
 _atom_site_type_symbol
 _atom_site_label
 _atom_site_symmetry_multiplicity
 _atom_site_fract_x
 _atom_site_fract_y
 _atom_site_fract_z
 _atom_site_occupancy
  Ca  Ca1  1  0.483863  0.844402  0.655598  1.0
  Ca  Ca2  1  0.483863  0.155598  0.344402  1.0
  Ca  Ca3  1  0.516137  0.655598  0.155598  1.0
  Ca  Ca4  1  0.516137  0.344402  0.844402  1.0
  Al  Al5  1  0.025427  0.643940  0.856060  1.0
  Al  Al6  1  0.025427  0.356060  0.143940  1.0
  Al  Al7  1  0.974573  0.856060  0.356060  1.0
  Al  Al8  1  0.974573  0.143940  0.643940  1.0
  Si  Si9  1  0.000000  0.000000  0.000000  1.0
  Si  Si10  1  0.000000  0.500000  0.500000  1.0
  O  O11  1  0.691929  0.644498  0.855502  1.0
  O  O12  1  0.177933  0.406852  0.348638  1.0
  O  O13  1  0.691929  0.355502  0.144498  1.0
  O  O14  1  0.822067  0.348638  0.593148  1.0
  O  O15  1  0.308071  0.144498  0.644498  1.0
  O  O16  1  0.822067  0.651362  0.406852  1.0
  O  O17  1  0.177933  0.848638  0.906852  1.0
  O  O18  1  0.179495  0.500000  0.000000  1.0
  O  O19  1  0.820505  0.000000  0.500000  1.0
  O  O20  1  0.177933  0.151362  0.093148  1.0
  O  O21  1  0.822067  0.093148  0.848638  1.0
  O  O22  1  0.308071  0.855502  0.355502  1.0
  O  O23  1  0.822067  0.906852  0.151362  1.0
  O  O24  1  0.177933  0.593148  0.651362  1.0
