# generated using pymatgen
data_PrSn2
_symmetry_space_group_name_H-M   'P 1'
_cell_length_a   4.55652566
_cell_length_b   4.70114175
_cell_length_c   8.30860101
_cell_angle_alpha   90.00000000
_cell_angle_beta   105.91466369
_cell_angle_gamma   90.00000000
_symmetry_Int_Tables_number   1
_chemical_formula_structural   PrSn2
_chemical_formula_sum   'Pr2 Sn4'
_cell_volume   171.15581721
_cell_formula_units_Z   2
loop_
 _symmetry_equiv_pos_site_id
 _symmetry_equiv_pos_as_xyz
  1  'x, y, z'
loop_
 _atom_site_type_symbol
 _atom_site_label
 _atom_site_symmetry_multiplicity
 _atom_site_fract_x
 _atom_site_fract_y
 _atom_site_fract_z
 _atom_site_occupancy
  Pr  Pr1  1  0.854161  0.500000  0.708322  1.0
  Pr  Pr2  1  0.145839  0.500000  0.291678  1.0
  Sn  Sn3  1  0.681962  0.000000  0.363925  1.0
  Sn  Sn4  1  0.318038  0.000000  0.636075  1.0
  Sn  Sn5  1  0.500000  0.500000  0.000000  1.0
  Sn  Sn6  1  0.000000  0.000000  0.000000  1.0
