# generated using pymatgen
data_ThNi5
_symmetry_space_group_name_H-M   'P 1'
_cell_length_a   4.00071382
_cell_length_b   4.92250726
_cell_length_c   4.92299178
_cell_angle_alpha   119.99674949
_cell_angle_beta   90.00000000
_cell_angle_gamma   90.00000000
_symmetry_Int_Tables_number   1
_chemical_formula_structural   ThNi5
_chemical_formula_sum   'Th1 Ni5'
_cell_volume   83.96490833
_cell_formula_units_Z   1
loop_
 _symmetry_equiv_pos_site_id
 _symmetry_equiv_pos_as_xyz
  1  'x, y, z'
loop_
 _atom_site_type_symbol
 _atom_site_label
 _atom_site_symmetry_multiplicity
 _atom_site_fract_x
 _atom_site_fract_y
 _atom_site_fract_z
 _atom_site_occupancy
  Th  Th1  1  0.000000  0.999996  0.000000  1.0
  Ni  Ni2  1  0.000000  0.333303  0.666694  1.0
  Ni  Ni3  1  0.000000  0.666609  0.333306  1.0
  Ni  Ni4  1  0.500000  0.499999  0.000000  1.0
  Ni  Ni5  1  0.500000  0.499998  0.500001  1.0
  Ni  Ni6  1  0.500000  0.999996  0.499999  1.0
