# generated using pymatgen
data_Hf2Ge
_symmetry_space_group_name_H-M   'P 1'
_cell_length_a   5.29794662
_cell_length_b   5.39128131
_cell_length_c   5.39128132
_cell_angle_alpha   76.02970283
_cell_angle_beta   60.57104799
_cell_angle_gamma   60.57104792
_symmetry_Int_Tables_number   1
_chemical_formula_structural   Hf2Ge
_chemical_formula_sum   'Hf4 Ge2'
_cell_volume   116.81365482
_cell_formula_units_Z   2
loop_
 _symmetry_equiv_pos_site_id
 _symmetry_equiv_pos_as_xyz
  1  'x, y, z'
loop_
 _atom_site_type_symbol
 _atom_site_label
 _atom_site_symmetry_multiplicity
 _atom_site_fract_x
 _atom_site_fract_y
 _atom_site_fract_z
 _atom_site_occupancy
  Hf  Hf1  1  0.655020  0.189960  0.500000  1.0
  Hf  Hf2  1  0.844980  0.500000  0.810040  1.0
  Hf  Hf3  1  0.344980  0.810040  0.500000  1.0
  Hf  Hf4  1  0.155020  0.500000  0.189960  1.0
  Ge  Ge5  1  0.750000  0.000000  0.000000  1.0
  Ge  Ge6  1  0.250000  0.000000  0.000000  1.0
