# generated using pymatgen
data_Pb2Au
_symmetry_space_group_name_H-M   'P 1'
_cell_length_a   5.94142999
_cell_length_b   6.01601654
_cell_length_c   6.01601654
_cell_angle_alpha   75.88674207
_cell_angle_beta   60.40928200
_cell_angle_gamma   60.40928200
_symmetry_Int_Tables_number   1
_chemical_formula_structural   Pb2Au
_chemical_formula_sum   'Pb4 Au2'
_cell_volume   162.60094137
_cell_formula_units_Z   2
loop_
 _symmetry_equiv_pos_site_id
 _symmetry_equiv_pos_as_xyz
  1  'x, y, z'
loop_
 _atom_site_type_symbol
 _atom_site_label
 _atom_site_symmetry_multiplicity
 _atom_site_fract_x
 _atom_site_fract_y
 _atom_site_fract_z
 _atom_site_occupancy
  Pb  Pb1  1  0.340583  0.500000  0.818834  1.0
  Pb  Pb2  1  0.659417  0.500000  0.181166  1.0
  Pb  Pb3  1  0.840583  0.818834  0.500000  1.0
  Pb  Pb4  1  0.159417  0.181166  0.500000  1.0
  Au  Au5  1  0.750000  0.000000  0.000000  1.0
  Au  Au6  1  0.250000  0.000000  0.000000  1.0
