# generated using pymatgen
data_LuAlGe
_symmetry_space_group_name_H-M   'P 1'
_cell_length_a   4.03676204
_cell_length_b   5.50189281
_cell_length_c   5.67288392
_cell_angle_alpha   90.00000000
_cell_angle_beta   90.00000000
_cell_angle_gamma   111.52160963
_symmetry_Int_Tables_number   1
_chemical_formula_structural   LuAlGe
_chemical_formula_sum   'Lu2 Al2 Ge2'
_cell_volume   117.20941973
_cell_formula_units_Z   2
loop_
 _symmetry_equiv_pos_site_id
 _symmetry_equiv_pos_as_xyz
  1  'x, y, z'
loop_
 _atom_site_type_symbol
 _atom_site_label
 _atom_site_symmetry_multiplicity
 _atom_site_fract_x
 _atom_site_fract_y
 _atom_site_fract_z
 _atom_site_occupancy
  Lu  Lu1  1  0.309691  0.619383  0.250000  1.0
  Lu  Lu2  1  0.690309  0.380617  0.750000  1.0
  Al  Al3  1  0.000000  0.000000  0.000000  1.0
  Al  Al4  1  0.000000  0.000000  0.500000  1.0
  Ge  Ge5  1  0.607870  0.215739  0.250000  1.0
  Ge  Ge6  1  0.392130  0.784261  0.750000  1.0
