# generated using pymatgen
data_Y4Se3N2
_symmetry_space_group_name_H-M   'P 1'
_cell_length_a   6.97260172
_cell_length_b   3.94525061
_cell_length_c   10.49468771
_cell_angle_alpha   89.99999798
_cell_angle_beta   51.25783596
_cell_angle_gamma   73.56598240
_symmetry_Int_Tables_number   1
_chemical_formula_structural   Y4Se3N2
_chemical_formula_sum   'Y4 Se3 N2'
_cell_volume   209.83857569
_cell_formula_units_Z   1
loop_
 _symmetry_equiv_pos_site_id
 _symmetry_equiv_pos_as_xyz
  1  'x, y, z'
loop_
 _atom_site_type_symbol
 _atom_site_label
 _atom_site_symmetry_multiplicity
 _atom_site_fract_x
 _atom_site_fract_y
 _atom_site_fract_z
 _atom_site_occupancy
  Y  Y1  1  0.235238  0.882381  0.641430  1.0
  Y  Y2  1  0.764762  0.117619  0.358570  1.0
  Y  Y3  1  0.579141  0.710430  0.152417  1.0
  Y  Y4  1  0.420859  0.289570  0.847583  1.0
  Se  Se5  1  0.000000  0.000000  0.000000  1.0
  Se  Se6  1  0.788052  0.605974  0.775078  1.0
  Se  Se7  1  0.211948  0.394026  0.224922  1.0
  N  N8  1  0.568475  0.715762  0.362818  1.0
  N  N9  1  0.431525  0.284238  0.637182  1.0
