# generated using pymatgen
data_SmGe2
_symmetry_space_group_name_H-M   'P 1'
_cell_length_a   4.08889690
_cell_length_b   4.08889689
_cell_length_c   8.69448689
_cell_angle_alpha   103.60005710
_cell_angle_beta   103.60005706
_cell_angle_gamma   90.00000006
_symmetry_Int_Tables_number   1
_chemical_formula_structural   SmGe2
_chemical_formula_sum   'Sm2 Ge4'
_cell_volume   137.09089566
_cell_formula_units_Z   2
loop_
 _symmetry_equiv_pos_site_id
 _symmetry_equiv_pos_as_xyz
  1  'x, y, z'
loop_
 _atom_site_type_symbol
 _atom_site_label
 _atom_site_symmetry_multiplicity
 _atom_site_fract_x
 _atom_site_fract_y
 _atom_site_fract_z
 _atom_site_occupancy
  Sm  Sm1  1  0.875000  0.625000  0.250000  1.0
  Sm  Sm2  1  0.125000  0.375000  0.750000  1.0
  Ge  Ge3  1  0.704028  0.954028  0.908055  1.0
  Ge  Ge4  1  0.454027  0.204028  0.408055  1.0
  Ge  Ge5  1  0.545972  0.795972  0.591945  1.0
  Ge  Ge6  1  0.295973  0.045972  0.091945  1.0
