# generated using pymatgen
data_P2W
_symmetry_space_group_name_H-M   'P 1'
_cell_length_a   3.18353666
_cell_length_b   4.55047628
_cell_length_c   6.78721699
_cell_angle_alpha   80.77307684
_cell_angle_beta   76.43640765
_cell_angle_gamma   69.52475969
_symmetry_Int_Tables_number   1
_chemical_formula_structural   P2W
_chemical_formula_sum   'P4 W2'
_cell_volume   89.21137045
_cell_formula_units_Z   2
loop_
 _symmetry_equiv_pos_site_id
 _symmetry_equiv_pos_as_xyz
  1  'x, y, z'
loop_
 _atom_site_type_symbol
 _atom_site_label
 _atom_site_symmetry_multiplicity
 _atom_site_fract_x
 _atom_site_fract_y
 _atom_site_fract_z
 _atom_site_occupancy
  P  P1  1  0.137903  0.748442  0.975752  1.0
  P  P2  1  0.862097  0.251558  0.024248  1.0
  P  P3  1  0.399476  0.801577  0.399471  1.0
  P  P4  1  0.600524  0.198423  0.600529  1.0
  W  W5  1  0.841956  0.608842  0.707247  1.0
  W  W6  1  0.158044  0.391158  0.292753  1.0
