# generated using pymatgen
data_P2W
_symmetry_space_group_name_H-M   'P 1'
_cell_length_a   3.18134320
_cell_length_b   5.00739215
_cell_length_c   5.83943660
_cell_angle_alpha   90.00000000
_cell_angle_beta   105.80722339
_cell_angle_gamma   90.00000000
_symmetry_Int_Tables_number   1
_chemical_formula_structural   P2W
_chemical_formula_sum   'P4 W2'
_cell_volume   89.50577380
_cell_formula_units_Z   2
loop_
 _symmetry_equiv_pos_site_id
 _symmetry_equiv_pos_as_xyz
  1  'x, y, z'
loop_
 _atom_site_type_symbol
 _atom_site_label
 _atom_site_symmetry_multiplicity
 _atom_site_fract_x
 _atom_site_fract_y
 _atom_site_fract_z
 _atom_site_occupancy
  P  P1  1  0.430355  0.616682  0.860711  1.0
  P  P2  1  0.569645  0.116682  0.139289  1.0
  P  P3  1  0.701773  0.800582  0.403546  1.0
  P  P4  1  0.298227  0.300582  0.596454  1.0
  W  W5  1  0.093739  0.499736  0.187478  1.0
  W  W6  1  0.906261  0.999736  0.812522  1.0
