# generated using pymatgen
data_YNi5
_symmetry_space_group_name_H-M   'P 1'
_cell_length_a   3.94235018
_cell_length_b   4.87989722
_cell_length_c   4.88228325
_cell_angle_alpha   119.98384089
_cell_angle_beta   90.00000000
_cell_angle_gamma   90.00000000
_symmetry_Int_Tables_number   1
_chemical_formula_structural   YNi5
_chemical_formula_sum   'Y1 Ni5'
_cell_volume   81.35610901
_cell_formula_units_Z   1
loop_
 _symmetry_equiv_pos_site_id
 _symmetry_equiv_pos_as_xyz
  1  'x, y, z'
loop_
 _atom_site_type_symbol
 _atom_site_label
 _atom_site_symmetry_multiplicity
 _atom_site_fract_x
 _atom_site_fract_y
 _atom_site_fract_z
 _atom_site_occupancy
  Y  Y1  1  0.000000  0.999992  0.000000  1.0
  Ni  Ni2  1  0.000000  0.333303  0.666690  1.0
  Ni  Ni3  1  0.000000  0.666613  0.333310  1.0
  Ni  Ni4  1  0.500000  0.499999  0.000000  1.0
  Ni  Ni5  1  0.500000  0.499997  0.500002  1.0
  Ni  Ni6  1  0.500000  0.999995  0.499998  1.0
