# generated using pymatgen
data_YFe2
_symmetry_space_group_name_H-M   'P 1'
_cell_length_a   5.15612437
_cell_length_b   5.15612437
_cell_length_c   5.15612437
_cell_angle_alpha   60.00000000
_cell_angle_beta   60.00000000
_cell_angle_gamma   60.00000000
_symmetry_Int_Tables_number   1
_chemical_formula_structural   YFe2
_chemical_formula_sum   'Y2 Fe4'
_cell_volume   96.92931760
_cell_formula_units_Z   2
loop_
 _symmetry_equiv_pos_site_id
 _symmetry_equiv_pos_as_xyz
  1  'x, y, z'
loop_
 _atom_site_type_symbol
 _atom_site_label
 _atom_site_symmetry_multiplicity
 _atom_site_fract_x
 _atom_site_fract_y
 _atom_site_fract_z
 _atom_site_occupancy
  Y  Y1  1  0.750000  0.750000  0.750000  1.0
  Y  Y2  1  0.000000  0.000000  0.000000  1.0
  Fe  Fe3  1  0.875000  0.375000  0.375000  1.0
  Fe  Fe4  1  0.375000  0.875000  0.375000  1.0
  Fe  Fe5  1  0.375000  0.375000  0.875000  1.0
  Fe  Fe6  1  0.375000  0.375000  0.375000  1.0
