# generated using pymatgen
data_SrAl2
_symmetry_space_group_name_H-M   'P 1'
_cell_length_a   4.80218594
_cell_length_b   6.09253951
_cell_length_c   6.09253951
_cell_angle_alpha   81.25591087
_cell_angle_beta   66.78990796
_cell_angle_gamma   66.78990796
_symmetry_Int_Tables_number   1
_chemical_formula_structural   SrAl2
_chemical_formula_sum   'Sr2 Al4'
_cell_volume   150.56558410
_cell_formula_units_Z   2
loop_
 _symmetry_equiv_pos_site_id
 _symmetry_equiv_pos_as_xyz
  1  'x, y, z'
loop_
 _atom_site_type_symbol
 _atom_site_label
 _atom_site_symmetry_multiplicity
 _atom_site_fract_x
 _atom_site_fract_y
 _atom_site_fract_z
 _atom_site_occupancy
  Sr  Sr1  1  0.750000  0.699928  0.800072  1.0
  Sr  Sr2  1  0.250000  0.300072  0.199928  1.0
  Al  Al3  1  0.931682  0.907264  0.229372  1.0
  Al  Al4  1  0.068318  0.092736  0.770628  1.0
  Al  Al5  1  0.431682  0.729372  0.407264  1.0
  Al  Al6  1  0.568318  0.270628  0.592736  1.0
