# generated using pymatgen
data_Al2Ru
_symmetry_space_group_name_H-M   'P 1'
_cell_length_a   4.67476625
_cell_length_b   4.67476625
_cell_length_c   5.01550374
_cell_angle_alpha   103.86162668
_cell_angle_beta   103.86162663
_cell_angle_gamma   119.07271722
_symmetry_Int_Tables_number   1
_chemical_formula_structural   Al2Ru
_chemical_formula_sum   'Al4 Ru2'
_cell_volume   84.42553282
_cell_formula_units_Z   2
loop_
 _symmetry_equiv_pos_site_id
 _symmetry_equiv_pos_as_xyz
  1  'x, y, z'
loop_
 _atom_site_type_symbol
 _atom_site_label
 _atom_site_symmetry_multiplicity
 _atom_site_fract_x
 _atom_site_fract_y
 _atom_site_fract_z
 _atom_site_occupancy
  Al  Al1  1  0.795929  0.204071  0.750000  1.0
  Al  Al2  1  0.454071  0.545929  0.750000  1.0
  Al  Al3  1  0.204071  0.795929  0.250000  1.0
  Al  Al4  1  0.545929  0.454071  0.250000  1.0
  Ru  Ru5  1  0.125000  0.875000  0.750000  1.0
  Ru  Ru6  1  0.875000  0.125000  0.250000  1.0
