# generated using pymatgen
data_ScGe2
_symmetry_space_group_name_H-M   'P 1'
_cell_length_a   3.84777029
_cell_length_b   3.91986215
_cell_length_c   7.67730545
_cell_angle_alpha   104.79070216
_cell_angle_beta   90.00000000
_cell_angle_gamma   90.00000000
_symmetry_Int_Tables_number   1
_chemical_formula_structural   ScGe2
_chemical_formula_sum   'Sc2 Ge4'
_cell_volume   111.95784070
_cell_formula_units_Z   2
loop_
 _symmetry_equiv_pos_site_id
 _symmetry_equiv_pos_as_xyz
  1  'x, y, z'
loop_
 _atom_site_type_symbol
 _atom_site_label
 _atom_site_symmetry_multiplicity
 _atom_site_fract_x
 _atom_site_fract_y
 _atom_site_fract_z
 _atom_site_occupancy
  Sc  Sc1  1  0.750000  0.100524  0.201049  1.0
  Sc  Sc2  1  0.250000  0.899476  0.798951  1.0
  Ge  Ge3  1  0.750000  0.440308  0.880615  1.0
  Ge  Ge4  1  0.250000  0.559692  0.119385  1.0
  Ge  Ge5  1  0.750000  0.748739  0.497479  1.0
  Ge  Ge6  1  0.250000  0.251261  0.502521  1.0
