# generated using pymatgen
data_Zr2Sb
_symmetry_space_group_name_H-M   'P 1'
_cell_length_a   4.14153761
_cell_length_b   4.14153761
_cell_length_c   8.50837956
_cell_angle_alpha   104.08611275
_cell_angle_beta   104.08611275
_cell_angle_gamma   90.00000000
_symmetry_Int_Tables_number   1
_chemical_formula_structural   Zr2Sb
_chemical_formula_sum   'Zr4 Sb2'
_cell_volume   137.02165835
_cell_formula_units_Z   2
loop_
 _symmetry_equiv_pos_site_id
 _symmetry_equiv_pos_as_xyz
  1  'x, y, z'
loop_
 _atom_site_type_symbol
 _atom_site_label
 _atom_site_symmetry_multiplicity
 _atom_site_fract_x
 _atom_site_fract_y
 _atom_site_fract_z
 _atom_site_occupancy
  Zr  Zr1  1  0.500000  0.000000  0.000000  1.0
  Zr  Zr2  1  0.000000  0.500000  0.000000  1.0
  Zr  Zr3  1  0.677503  0.677503  0.355007  1.0
  Zr  Zr4  1  0.322497  0.322497  0.644993  1.0
  Sb  Sb5  1  0.861606  0.861606  0.723211  1.0
  Sb  Sb6  1  0.138394  0.138394  0.276789  1.0
