# generated using pymatgen
data_Zr2Ga
_symmetry_space_group_name_H-M   'P 1'
_cell_length_a   5.48534533
_cell_length_b   5.47842195
_cell_length_c   5.47842243
_cell_angle_alpha   75.48507662
_cell_angle_beta   59.95818961
_cell_angle_gamma   59.95818952
_symmetry_Int_Tables_number   1
_chemical_formula_structural   Zr2Ga
_chemical_formula_sum   'Zr4 Ga2'
_cell_volume   123.37011777
_cell_formula_units_Z   2
loop_
 _symmetry_equiv_pos_site_id
 _symmetry_equiv_pos_as_xyz
  1  'x, y, z'
loop_
 _atom_site_type_symbol
 _atom_site_label
 _atom_site_symmetry_multiplicity
 _atom_site_fract_x
 _atom_site_fract_y
 _atom_site_fract_z
 _atom_site_occupancy
  Zr  Zr1  1  0.345931  0.808137  0.500000  1.0
  Zr  Zr2  1  0.154069  0.500000  0.191863  1.0
  Zr  Zr3  1  0.654069  0.191863  0.500000  1.0
  Zr  Zr4  1  0.845931  0.500000  0.808137  1.0
  Ga  Ga5  1  0.250000  0.000000  0.000000  1.0
  Ga  Ga6  1  0.750000  0.000000  0.000000  1.0
