# generated using pymatgen
data_Th2Ag
_symmetry_space_group_name_H-M   'P 1'
_cell_length_a   5.89280361
_cell_length_b   6.12452540
_cell_length_c   6.12452540
_cell_angle_alpha   76.61811056
_cell_angle_beta   61.24387184
_cell_angle_gamma   61.24387184
_symmetry_Int_Tables_number   1
_chemical_formula_structural   Th2Ag
_chemical_formula_sum   'Th4 Ag2'
_cell_volume   169.88083806
_cell_formula_units_Z   2
loop_
 _symmetry_equiv_pos_site_id
 _symmetry_equiv_pos_as_xyz
  1  'x, y, z'
loop_
 _atom_site_type_symbol
 _atom_site_label
 _atom_site_symmetry_multiplicity
 _atom_site_fract_x
 _atom_site_fract_y
 _atom_site_fract_z
 _atom_site_occupancy
  Th  Th1  1  0.345888  0.500000  0.808224  1.0
  Th  Th2  1  0.654112  0.500000  0.191776  1.0
  Th  Th3  1  0.845888  0.808224  0.500000  1.0
  Th  Th4  1  0.154112  0.191776  0.500000  1.0
  Ag  Ag5  1  0.750000  0.000000  0.000000  1.0
  Ag  Ag6  1  0.250000  0.000000  0.000000  1.0
