# generated using pymatgen
data_Hf2Si
_symmetry_space_group_name_H-M   'P 1'
_cell_length_a   5.20022986
_cell_length_b   5.32811520
_cell_length_c   5.32811520
_cell_angle_alpha   76.22303356
_cell_angle_beta   60.79085325
_cell_angle_gamma   60.79085320
_symmetry_Int_Tables_number   1
_chemical_formula_structural   Hf2Si
_chemical_formula_sum   'Hf4 Si2'
_cell_volume   112.47168396
_cell_formula_units_Z   2
loop_
 _symmetry_equiv_pos_site_id
 _symmetry_equiv_pos_as_xyz
  1  'x, y, z'
loop_
 _atom_site_type_symbol
 _atom_site_label
 _atom_site_symmetry_multiplicity
 _atom_site_fract_x
 _atom_site_fract_y
 _atom_site_fract_z
 _atom_site_occupancy
  Hf  Hf1  1  0.657025  0.185949  0.500000  1.0
  Hf  Hf2  1  0.842975  0.500000  0.814051  1.0
  Hf  Hf3  1  0.342975  0.814051  0.500000  1.0
  Hf  Hf4  1  0.157025  0.500000  0.185949  1.0
  Si  Si5  1  0.750000  0.000000  0.000000  1.0
  Si  Si6  1  0.250000  0.000000  0.000000  1.0
