# generated using pymatgen
data_TaS2
_symmetry_space_group_name_H-M   'P 1'
_cell_length_a   3.34211864
_cell_length_b   3.34211864
_cell_length_c   13.76022944
_cell_angle_alpha   90.00000000
_cell_angle_beta   90.00000000
_cell_angle_gamma   120.00000004
_symmetry_Int_Tables_number   1
_chemical_formula_structural   TaS2
_chemical_formula_sum   'Ta2 S4'
_cell_volume   133.10673546
_cell_formula_units_Z   2
loop_
 _symmetry_equiv_pos_site_id
 _symmetry_equiv_pos_as_xyz
  1  'x, y, z'
loop_
 _atom_site_type_symbol
 _atom_site_label
 _atom_site_symmetry_multiplicity
 _atom_site_fract_x
 _atom_site_fract_y
 _atom_site_fract_z
 _atom_site_occupancy
  Ta  Ta1  1  0.000000  0.000000  0.250000  1.0
  Ta  Ta2  1  0.000000  0.000000  0.750000  1.0
  S  S3  1  0.333333  0.666667  0.136359  1.0
  S  S4  1  0.666667  0.333333  0.636359  1.0
  S  S5  1  0.666667  0.333333  0.863641  1.0
  S  S6  1  0.333333  0.666667  0.363641  1.0
