# generated using pymatgen
data_YCu2
_symmetry_space_group_name_H-M   'P 1'
_cell_length_a   4.26863195
_cell_length_b   5.44497937
_cell_length_c   5.44497937
_cell_angle_alpha   78.58851628
_cell_angle_beta   66.92232344
_cell_angle_gamma   66.92232344
_symmetry_Int_Tables_number   1
_chemical_formula_structural   YCu2
_chemical_formula_sum   'Y2 Cu4'
_cell_volume   106.96442142
_cell_formula_units_Z   2
loop_
 _symmetry_equiv_pos_site_id
 _symmetry_equiv_pos_as_xyz
  1  'x, y, z'
loop_
 _atom_site_type_symbol
 _atom_site_label
 _atom_site_symmetry_multiplicity
 _atom_site_fract_x
 _atom_site_fract_y
 _atom_site_fract_z
 _atom_site_occupancy
  Y  Y1  1  0.539783  0.710217  0.210217  1.0
  Y  Y2  1  0.460217  0.289783  0.789783  1.0
  Cu  Cu3  1  0.164540  0.285656  0.385265  1.0
  Cu  Cu4  1  0.835460  0.714344  0.614735  1.0
  Cu  Cu5  1  0.835460  0.114735  0.214344  1.0
  Cu  Cu6  1  0.164540  0.885265  0.785656  1.0
