# generated using pymatgen
data_Th2Al
_symmetry_space_group_name_H-M   'P 1'
_cell_length_a   5.71978356
_cell_length_b   6.14221470
_cell_length_c   6.14221470
_cell_angle_alpha   77.47914414
_cell_angle_beta   62.25013254
_cell_angle_gamma   62.25013257
_symmetry_Int_Tables_number   1
_chemical_formula_structural   Th2Al
_chemical_formula_sum   'Th4 Al2'
_cell_volume   169.00713766
_cell_formula_units_Z   2
loop_
 _symmetry_equiv_pos_site_id
 _symmetry_equiv_pos_as_xyz
  1  'x, y, z'
loop_
 _atom_site_type_symbol
 _atom_site_label
 _atom_site_symmetry_multiplicity
 _atom_site_fract_x
 _atom_site_fract_y
 _atom_site_fract_z
 _atom_site_occupancy
  Th  Th1  1  0.158053  0.500000  0.183894  1.0
  Th  Th2  1  0.341947  0.816106  0.500000  1.0
  Th  Th3  1  0.658053  0.183894  0.500000  1.0
  Th  Th4  1  0.841947  0.500000  0.816106  1.0
  Al  Al5  1  0.250000  0.000000  0.000000  1.0
  Al  Al6  1  0.750000  0.000000  0.000000  1.0
