# generated using pymatgen
data_YSn2
_symmetry_space_group_name_H-M   'P 1'
_cell_length_a   4.37381044
_cell_length_b   4.43987192
_cell_length_c   8.50759819
_cell_angle_alpha   105.12559324
_cell_angle_beta   90.00000000
_cell_angle_gamma   90.00000000
_symmetry_Int_Tables_number   1
_chemical_formula_structural   YSn2
_chemical_formula_sum   'Y2 Sn4'
_cell_volume   159.48687407
_cell_formula_units_Z   2
loop_
 _symmetry_equiv_pos_site_id
 _symmetry_equiv_pos_as_xyz
  1  'x, y, z'
loop_
 _atom_site_type_symbol
 _atom_site_label
 _atom_site_symmetry_multiplicity
 _atom_site_fract_x
 _atom_site_fract_y
 _atom_site_fract_z
 _atom_site_occupancy
  Y  Y1  1  0.750000  0.098942  0.197883  1.0
  Y  Y2  1  0.250000  0.901058  0.802117  1.0
  Sn  Sn3  1  0.750000  0.436626  0.873251  1.0
  Sn  Sn4  1  0.250000  0.563374  0.126749  1.0
  Sn  Sn5  1  0.750000  0.748899  0.497799  1.0
  Sn  Sn6  1  0.250000  0.251101  0.502201  1.0
