# generated using pymatgen
data_ZrTiAs
_symmetry_space_group_name_H-M   'P 1'
_cell_length_a   3.79039358
_cell_length_b   3.79039359
_cell_length_c   7.94176196
_cell_angle_alpha   103.80609813
_cell_angle_beta   103.80609817
_cell_angle_gamma   90.00000007
_symmetry_Int_Tables_number   1
_chemical_formula_structural   ZrTiAs
_chemical_formula_sum   'Zr2 Ti2 As2'
_cell_volume   107.40588084
_cell_formula_units_Z   2
loop_
 _symmetry_equiv_pos_site_id
 _symmetry_equiv_pos_as_xyz
  1  'x, y, z'
loop_
 _atom_site_type_symbol
 _atom_site_label
 _atom_site_symmetry_multiplicity
 _atom_site_fract_x
 _atom_site_fract_y
 _atom_site_fract_z
 _atom_site_occupancy
  Zr  Zr1  1  0.679579  0.679579  0.359158  1.0
  Zr  Zr2  1  0.320421  0.320421  0.640842  1.0
  Ti  Ti3  1  0.000000  0.500000  0.000000  1.0
  Ti  Ti4  1  0.500000  0.000000  0.000000  1.0
  As  As5  1  0.128780  0.128780  0.257561  1.0
  As  As6  1  0.871220  0.871220  0.742439  1.0
