# generated using pymatgen
data_Hf2Ni
_symmetry_space_group_name_H-M   'P 1'
_cell_length_a   5.23150995
_cell_length_b   5.23257092
_cell_length_c   5.23257092
_cell_angle_alpha   75.52848643
_cell_angle_beta   60.00670717
_cell_angle_gamma   60.00670713
_symmetry_Int_Tables_number   1
_chemical_formula_structural   Hf2Ni
_chemical_formula_sum   'Hf4 Ni2'
_cell_volume   107.44278619
_cell_formula_units_Z   2
loop_
 _symmetry_equiv_pos_site_id
 _symmetry_equiv_pos_as_xyz
  1  'x, y, z'
loop_
 _atom_site_type_symbol
 _atom_site_label
 _atom_site_symmetry_multiplicity
 _atom_site_fract_x
 _atom_site_fract_y
 _atom_site_fract_z
 _atom_site_occupancy
  Hf  Hf1  1  0.664230  0.171539  0.500000  1.0
  Hf  Hf2  1  0.835770  0.500000  0.828461  1.0
  Hf  Hf3  1  0.335770  0.828461  0.500000  1.0
  Hf  Hf4  1  0.164230  0.500000  0.171539  1.0
  Ni  Ni5  1  0.750000  0.000000  0.000000  1.0
  Ni  Ni6  1  0.250000  0.000000  0.000000  1.0
