# generated using pymatgen
data_ThSiTe
_symmetry_space_group_name_H-M   'P 1'
_cell_length_a   4.14568052
_cell_length_b   4.14568052
_cell_length_c   9.75522401
_cell_angle_alpha   102.26802515
_cell_angle_beta   102.26802515
_cell_angle_gamma   90.00000000
_symmetry_Int_Tables_number   1
_chemical_formula_structural   ThSiTe
_chemical_formula_sum   'Th2 Si2 Te2'
_cell_volume   159.91089191
_cell_formula_units_Z   2
loop_
 _symmetry_equiv_pos_site_id
 _symmetry_equiv_pos_as_xyz
  1  'x, y, z'
loop_
 _atom_site_type_symbol
 _atom_site_label
 _atom_site_symmetry_multiplicity
 _atom_site_fract_x
 _atom_site_fract_y
 _atom_site_fract_z
 _atom_site_occupancy
  Th  Th1  1  0.879683  0.879683  0.759365  1.0
  Th  Th2  1  0.120317  0.120317  0.240635  1.0
  Si  Si3  1  0.500000  0.000000  0.000000  1.0
  Si  Si4  1  0.000000  0.500000  0.000000  1.0
  Te  Te5  1  0.689447  0.689447  0.378894  1.0
  Te  Te6  1  0.310553  0.310553  0.621106  1.0
