# generated using pymatgen
data_GdOF
_symmetry_space_group_name_H-M   'P 1'
_cell_length_a   3.88555550
_cell_length_b   3.88555550
_cell_length_c   6.85310950
_cell_angle_alpha   73.53148189
_cell_angle_beta   73.53148189
_cell_angle_gamma   60.00001256
_symmetry_Int_Tables_number   1
_chemical_formula_structural   GdOF
_chemical_formula_sum   'Gd2 O2 F2'
_cell_volume   84.66673222
_cell_formula_units_Z   2
loop_
 _symmetry_equiv_pos_site_id
 _symmetry_equiv_pos_as_xyz
  1  'x, y, z'
loop_
 _atom_site_type_symbol
 _atom_site_label
 _atom_site_symmetry_multiplicity
 _atom_site_fract_x
 _atom_site_fract_y
 _atom_site_fract_z
 _atom_site_occupancy
  Gd  Gd1  1  0.740899  0.740899  0.777302  1.0
  Gd  Gd2  1  0.259101  0.259101  0.222698  1.0
  O  O3  1  0.622140  0.622140  0.133579  1.0
  O  O4  1  0.377860  0.377860  0.866421  1.0
  F  F5  1  0.870351  0.870351  0.388947  1.0
  F  F6  1  0.129649  0.129649  0.611053  1.0
