# generated using pymatgen
data_Zr2Rh
_symmetry_space_group_name_H-M   'P 1'
_cell_length_a   5.42455130
_cell_length_b   5.42455139
_cell_length_c   5.42455216
_cell_angle_alpha   105.80706411
_cell_angle_beta   105.80706442
_cell_angle_gamma   117.07794301
_symmetry_Int_Tables_number   1
_chemical_formula_structural   Zr2Rh
_chemical_formula_sum   'Zr4 Rh2'
_cell_volume   121.23208607
_cell_formula_units_Z   2
loop_
 _symmetry_equiv_pos_site_id
 _symmetry_equiv_pos_as_xyz
  1  'x, y, z'
loop_
 _atom_site_type_symbol
 _atom_site_label
 _atom_site_symmetry_multiplicity
 _atom_site_fract_x
 _atom_site_fract_y
 _atom_site_fract_z
 _atom_site_occupancy
  Zr  Zr1  1  0.165483  0.334517  0.500000  1.0
  Zr  Zr2  1  0.834517  0.665483  0.500000  1.0
  Zr  Zr3  1  0.334517  0.834517  0.169033  1.0
  Zr  Zr4  1  0.665483  0.165483  0.830967  1.0
  Rh  Rh5  1  0.250000  0.250000  0.000000  1.0
  Rh  Rh6  1  0.750000  0.750000  0.000000  1.0
