# generated using pymatgen
data_Ca2Sb
_symmetry_space_group_name_H-M   'P 1'
_cell_length_a   4.79154087
_cell_length_b   4.79154087
_cell_length_c   9.03273014
_cell_angle_alpha   105.38074438
_cell_angle_beta   105.38074438
_cell_angle_gamma   90.00000000
_symmetry_Int_Tables_number   1
_chemical_formula_structural   Ca2Sb
_chemical_formula_sum   'Ca4 Sb2'
_cell_volume   192.23958200
_cell_formula_units_Z   2
loop_
 _symmetry_equiv_pos_site_id
 _symmetry_equiv_pos_as_xyz
  1  'x, y, z'
loop_
 _atom_site_type_symbol
 _atom_site_label
 _atom_site_symmetry_multiplicity
 _atom_site_fract_x
 _atom_site_fract_y
 _atom_site_fract_z
 _atom_site_occupancy
  Ca  Ca1  1  0.320485  0.320485  0.640970  1.0
  Ca  Ca2  1  0.669283  0.669283  0.338566  1.0
  Ca  Ca3  1  0.494709  0.994709  0.989418  1.0
  Ca  Ca4  1  0.994709  0.494709  0.989418  1.0
  Sb  Sb5  1  0.130722  0.130722  0.261445  1.0
  Sb  Sb6  1  0.858992  0.858992  0.717984  1.0
