# generated using pymatgen
data_Hf2NiP
_symmetry_space_group_name_H-M   'P 1'
_cell_length_a   3.59291084
_cell_length_b   5.17762997
_cell_length_c   7.49348190
_cell_angle_alpha   110.99432592
_cell_angle_beta   90.00000000
_cell_angle_gamma   90.00000000
_symmetry_Int_Tables_number   1
_chemical_formula_structural   Hf2NiP
_chemical_formula_sum   'Hf4 Ni2 P2'
_cell_volume   130.14556015
_cell_formula_units_Z   2
loop_
 _symmetry_equiv_pos_site_id
 _symmetry_equiv_pos_as_xyz
  1  'x, y, z'
loop_
 _atom_site_type_symbol
 _atom_site_label
 _atom_site_symmetry_multiplicity
 _atom_site_fract_x
 _atom_site_fract_y
 _atom_site_fract_z
 _atom_site_occupancy
  Hf  Hf1  1  0.750000  0.207277  0.428389  1.0
  Hf  Hf2  1  0.250000  0.792723  0.571611  1.0
  Hf  Hf3  1  0.250000  0.790392  0.074444  1.0
  Hf  Hf4  1  0.750000  0.209608  0.925556  1.0
  Ni  Ni5  1  0.750000  0.647899  0.291774  1.0
  Ni  Ni6  1  0.250000  0.352101  0.708226  1.0
  P  P7  1  0.250000  0.349266  0.209694  1.0
  P  P8  1  0.750000  0.650734  0.790306  1.0
