# generated using pymatgen
data_Zr
_symmetry_space_group_name_H-M   'P 1'
_cell_length_a   5.49986675
_cell_length_b   5.87559873
_cell_length_c   5.87559873
_cell_angle_alpha   90.15022447
_cell_angle_beta   62.00839024
_cell_angle_gamma   62.00839024
_symmetry_Int_Tables_number   1
_chemical_formula_structural   Zr
_chemical_formula_sum   Zr6
_cell_volume   141.86654910
_cell_formula_units_Z   6
loop_
 _symmetry_equiv_pos_site_id
 _symmetry_equiv_pos_as_xyz
  1  'x, y, z'
loop_
 _atom_site_type_symbol
 _atom_site_label
 _atom_site_symmetry_multiplicity
 _atom_site_fract_x
 _atom_site_fract_y
 _atom_site_fract_z
 _atom_site_occupancy
  Zr  Zr1  1  0.750000  0.750110  0.249890  1.0
  Zr  Zr2  1  0.250000  0.249890  0.750110  1.0
  Zr  Zr3  1  0.416575  0.323984  0.177979  1.0
  Zr  Zr4  1  0.083425  0.822021  0.676016  1.0
  Zr  Zr5  1  0.583425  0.676016  0.822021  1.0
  Zr  Zr6  1  0.916575  0.177979  0.323984  1.0
