# generated using pymatgen
data_CaSi2
_symmetry_space_group_name_H-M   'P 1'
_cell_length_a   4.24295042
_cell_length_b   4.24295042
_cell_length_c   7.47190003
_cell_angle_alpha   106.49472930
_cell_angle_beta   106.49472930
_cell_angle_gamma   90.00000000
_symmetry_Int_Tables_number   1
_chemical_formula_structural   CaSi2
_chemical_formula_sum   'Ca2 Si4'
_cell_volume   123.19373065
_cell_formula_units_Z   2
loop_
 _symmetry_equiv_pos_site_id
 _symmetry_equiv_pos_as_xyz
  1  'x, y, z'
loop_
 _atom_site_type_symbol
 _atom_site_label
 _atom_site_symmetry_multiplicity
 _atom_site_fract_x
 _atom_site_fract_y
 _atom_site_fract_z
 _atom_site_occupancy
  Ca  Ca1  1  0.125000  0.875000  0.250000  1.0
  Ca  Ca2  1  0.875000  0.125000  0.750000  1.0
  Si  Si3  1  0.541172  0.291172  0.082344  1.0
  Si  Si4  1  0.291172  0.541172  0.582344  1.0
  Si  Si5  1  0.458828  0.708828  0.917656  1.0
  Si  Si6  1  0.708828  0.458828  0.417656  1.0
