# generated using pymatgen
data_UB2Rh2C
_symmetry_space_group_name_H-M   'P 1'
_cell_length_a   3.79608640
_cell_length_b   3.79608640
_cell_length_c   5.80081027
_cell_angle_alpha   109.09910964
_cell_angle_beta   109.09910964
_cell_angle_gamma   90.00000000
_symmetry_Int_Tables_number   1
_chemical_formula_structural   UB2Rh2C
_chemical_formula_sum   'U1 B2 Rh2 C1'
_cell_volume   74.10335692
_cell_formula_units_Z   1
loop_
 _symmetry_equiv_pos_site_id
 _symmetry_equiv_pos_as_xyz
  1  'x, y, z'
loop_
 _atom_site_type_symbol
 _atom_site_label
 _atom_site_symmetry_multiplicity
 _atom_site_fract_x
 _atom_site_fract_y
 _atom_site_fract_z
 _atom_site_occupancy
  U  U1  1  0.000000  0.000000  0.000000  1.0
  B  B2  1  0.646563  0.646563  0.293127  1.0
  B  B3  1  0.353437  0.353437  0.706873  1.0
  Rh  Rh4  1  0.750000  0.250000  0.500000  1.0
  Rh  Rh5  1  0.250000  0.750000  0.500000  1.0
  C  C6  1  0.500000  0.500000  0.000000  1.0
