# generated using pymatgen
data_Na3AlP2
_symmetry_space_group_name_H-M   'P 1'
_cell_length_a   6.06132350
_cell_length_b   6.83246751
_cell_length_c   8.04840998
_cell_angle_alpha   115.12236620
_cell_angle_beta   112.12039811
_cell_angle_gamma   90.00000002
_symmetry_Int_Tables_number   1
_chemical_formula_structural   Na3AlP2
_chemical_formula_sum   'Na6 Al2 P4'
_cell_volume   274.44653941
_cell_formula_units_Z   2
loop_
 _symmetry_equiv_pos_site_id
 _symmetry_equiv_pos_as_xyz
  1  'x, y, z'
loop_
 _atom_site_type_symbol
 _atom_site_label
 _atom_site_symmetry_multiplicity
 _atom_site_fract_x
 _atom_site_fract_y
 _atom_site_fract_z
 _atom_site_occupancy
  Na  Na1  1  0.749999  0.500000  0.000000  1.0
  Na  Na2  1  0.250001  0.500000  0.000000  1.0
  Na  Na3  1  0.807527  0.990690  0.615055  1.0
  Na  Na4  1  0.307497  0.624251  0.614994  1.0
  Na  Na5  1  0.692503  0.375749  0.385006  1.0
  Na  Na6  1  0.192473  0.009310  0.384945  1.0
  Al  Al7  1  0.250001  0.000000  0.000000  1.0
  Al  Al8  1  0.749999  0.000000  0.000000  1.0
  P  P9  1  0.399115  0.096020  0.798231  1.0
  P  P10  1  0.600885  0.903980  0.201769  1.0
  P  P11  1  0.899111  0.702177  0.798221  1.0
  P  P12  1  0.100889  0.297823  0.201779  1.0
