# generated using pymatgen
data_ErFe2
_symmetry_space_group_name_H-M   'P 1'
_cell_length_a   5.10069560
_cell_length_b   5.10069560
_cell_length_c   5.10069530
_cell_angle_alpha   60.06338560
_cell_angle_beta   60.06338560
_cell_angle_gamma   60.06338697
_symmetry_Int_Tables_number   1
_chemical_formula_structural   ErFe2
_chemical_formula_sum   'Er2 Fe4'
_cell_volume   93.97160224
_cell_formula_units_Z   2
loop_
 _symmetry_equiv_pos_site_id
 _symmetry_equiv_pos_as_xyz
  1  'x, y, z'
loop_
 _atom_site_type_symbol
 _atom_site_label
 _atom_site_symmetry_multiplicity
 _atom_site_fract_x
 _atom_site_fract_y
 _atom_site_fract_z
 _atom_site_occupancy
  Er  Er1  1  0.625239  0.625239  0.625239  1.0
  Er  Er2  1  0.374761  0.374761  0.374761  1.0
  Fe  Fe3  1  0.000000  0.000000  0.000000  1.0
  Fe  Fe4  1  0.000000  0.000000  0.500000  1.0
  Fe  Fe5  1  0.000000  0.500000  0.000000  1.0
  Fe  Fe6  1  0.500000  0.000000  0.000000  1.0
