# generated using pymatgen
data_ThGe2
_symmetry_space_group_name_H-M   'P 1'
_cell_length_a   4.06906259
_cell_length_b   4.06906260
_cell_length_c   8.88189496
_cell_angle_alpha   103.24203078
_cell_angle_beta   103.24203084
_cell_angle_gamma   90.00000001
_symmetry_Int_Tables_number   1
_chemical_formula_structural   ThGe2
_chemical_formula_sum   'Th2 Ge4'
_cell_volume   139.12977169
_cell_formula_units_Z   2
loop_
 _symmetry_equiv_pos_site_id
 _symmetry_equiv_pos_as_xyz
  1  'x, y, z'
loop_
 _atom_site_type_symbol
 _atom_site_label
 _atom_site_symmetry_multiplicity
 _atom_site_fract_x
 _atom_site_fract_y
 _atom_site_fract_z
 _atom_site_occupancy
  Th  Th1  1  0.875000  0.625000  0.250000  1.0
  Th  Th2  1  0.125000  0.375000  0.750000  1.0
  Ge  Ge3  1  0.704909  0.954909  0.909819  1.0
  Ge  Ge4  1  0.454909  0.204909  0.409819  1.0
  Ge  Ge5  1  0.545091  0.795091  0.590181  1.0
  Ge  Ge6  1  0.295091  0.045091  0.090181  1.0
