# generated using pymatgen
data_Zr(TiGa2)2
_symmetry_space_group_name_H-M   'P 1'
_cell_length_a   5.39490215
_cell_length_b   5.39490215
_cell_length_c   5.39490215
_cell_angle_alpha   104.87546389
_cell_angle_beta   104.87546389
_cell_angle_gamma   119.11487001
_symmetry_Int_Tables_number   1
_chemical_formula_structural   Zr(TiGa2)2
_chemical_formula_sum   'Zr1 Ti2 Ga4'
_cell_volume   118.26676889
_cell_formula_units_Z   1
loop_
 _symmetry_equiv_pos_site_id
 _symmetry_equiv_pos_as_xyz
  1  'x, y, z'
loop_
 _atom_site_type_symbol
 _atom_site_label
 _atom_site_symmetry_multiplicity
 _atom_site_fract_x
 _atom_site_fract_y
 _atom_site_fract_z
 _atom_site_occupancy
  Zr  Zr1  1  0.000000  0.000000  0.000000  1.0
  Ti  Ti2  1  0.750000  0.250000  0.500000  1.0
  Ti  Ti3  1  0.250000  0.750000  0.500000  1.0
  Ga  Ga4  1  0.696492  0.696492  0.392985  1.0
  Ga  Ga5  1  0.303508  0.303508  0.607015  1.0
  Ga  Ga6  1  0.303508  0.696492  0.000000  1.0
  Ga  Ga7  1  0.696492  0.303508  0.000000  1.0
