# generated using pymatgen
data_Er(Al2Mo)2
_symmetry_space_group_name_H-M   'P 1'
_cell_length_a   5.34739184
_cell_length_b   5.45453629
_cell_length_c   5.45453629
_cell_angle_alpha   76.09723590
_cell_angle_beta   60.64769148
_cell_angle_gamma   60.64769148
_symmetry_Int_Tables_number   1
_chemical_formula_structural   Er(Al2Mo)2
_chemical_formula_sum   'Er1 Al4 Mo2'
_cell_volume   120.86878903
_cell_formula_units_Z   1
loop_
 _symmetry_equiv_pos_site_id
 _symmetry_equiv_pos_as_xyz
  1  'x, y, z'
loop_
 _atom_site_type_symbol
 _atom_site_label
 _atom_site_symmetry_multiplicity
 _atom_site_fract_x
 _atom_site_fract_y
 _atom_site_fract_z
 _atom_site_occupancy
  Er  Er1  1  0.000000  0.000000  0.000000  1.0
  Al  Al2  1  0.694473  0.000000  0.611055  1.0
  Al  Al3  1  0.305527  0.000000  0.388945  1.0
  Al  Al4  1  0.694473  0.611055  0.000000  1.0
  Al  Al5  1  0.305527  0.388945  0.000000  1.0
  Mo  Mo6  1  0.250000  0.500000  0.500000  1.0
  Mo  Mo7  1  0.750000  0.500000  0.500000  1.0
