# generated using pymatgen
data_Tb2Fe2Si2C
_symmetry_space_group_name_H-M   'P 1'
_cell_length_a   3.93865569
_cell_length_b   5.65037796
_cell_length_c   5.67209632
_cell_angle_alpha   73.38164827
_cell_angle_beta   69.68411753
_cell_angle_gamma   69.60254719
_symmetry_Int_Tables_number   1
_chemical_formula_structural   Tb2Fe2Si2C
_chemical_formula_sum   'Tb2 Fe2 Si2 C1'
_cell_volume   108.98456155
_cell_formula_units_Z   1
loop_
 _symmetry_equiv_pos_site_id
 _symmetry_equiv_pos_as_xyz
  1  'x, y, z'
loop_
 _atom_site_type_symbol
 _atom_site_label
 _atom_site_symmetry_multiplicity
 _atom_site_fract_x
 _atom_site_fract_y
 _atom_site_fract_z
 _atom_site_occupancy
  Tb  Tb1  1  0.940914  0.324024  0.794146  1.0
  Tb  Tb2  1  0.059086  0.675976  0.205854  1.0
  Fe  Fe3  1  0.700496  0.193608  0.405398  1.0
  Fe  Fe4  1  0.299504  0.806392  0.594602  1.0
  Si  Si5  1  0.663408  0.892326  0.780857  1.0
  Si  Si6  1  0.336592  0.107674  0.219143  1.0
  C  C7  1  0.500000  0.500000  0.500000  1.0
