# generated using pymatgen
data_Mg(AlSe2)2
_symmetry_space_group_name_H-M   'P 1'
_cell_length_a   13.90932316
_cell_length_b   13.90932316
_cell_length_c   13.90932316
_cell_angle_alpha   16.21068787
_cell_angle_beta   16.21068791
_cell_angle_gamma   16.21068790
_symmetry_Int_Tables_number   1
_chemical_formula_structural   Mg(AlSe2)2
_chemical_formula_sum   'Mg1 Al2 Se4'
_cell_volume   182.84115832
_cell_formula_units_Z   1
loop_
 _symmetry_equiv_pos_site_id
 _symmetry_equiv_pos_as_xyz
  1  'x, y, z'
loop_
 _atom_site_type_symbol
 _atom_site_label
 _atom_site_symmetry_multiplicity
 _atom_site_fract_x
 _atom_site_fract_y
 _atom_site_fract_z
 _atom_site_occupancy
  Mg  Mg1  1  0.167559  0.167559  0.167559  1.0
  Al  Al2  1  0.409850  0.409850  0.409850  1.0
  Al  Al3  1  0.925292  0.925292  0.925292  1.0
  Se  Se4  1  0.869149  0.869149  0.869149  1.0
  Se  Se5  1  0.465992  0.465992  0.465992  1.0
  Se  Se6  1  0.284678  0.284678  0.284678  1.0
  Se  Se7  1  0.050479  0.050479  0.050479  1.0
