# generated using pymatgen
data_Ta3B4
_symmetry_space_group_name_H-M   'P 1'
_cell_length_a   3.14599654
_cell_length_b   3.31016247
_cell_length_c   7.39626858
_cell_angle_alpha   102.93070859
_cell_angle_beta   102.27913888
_cell_angle_gamma   90.00000000
_symmetry_Int_Tables_number   1
_chemical_formula_structural   Ta3B4
_chemical_formula_sum   'Ta3 B4'
_cell_volume   73.26075757
_cell_formula_units_Z   1
loop_
 _symmetry_equiv_pos_site_id
 _symmetry_equiv_pos_as_xyz
  1  'x, y, z'
loop_
 _atom_site_type_symbol
 _atom_site_label
 _atom_site_symmetry_multiplicity
 _atom_site_fract_x
 _atom_site_fract_y
 _atom_site_fract_z
 _atom_site_occupancy
  Ta  Ta1  1  0.500000  0.000000  0.000000  1.0
  Ta  Ta2  1  0.185262  0.185262  0.370524  1.0
  Ta  Ta3  1  0.814738  0.814738  0.629476  1.0
  B  B4  1  0.366523  0.366523  0.733047  1.0
  B  B5  1  0.633477  0.633477  0.266953  1.0
  B  B6  1  0.935759  0.435759  0.871518  1.0
  B  B7  1  0.064241  0.564241  0.128482  1.0
