# generated using pymatgen
data_Dy(TiGa2)2
_symmetry_space_group_name_H-M   'P 1'
_cell_length_a   5.44181981
_cell_length_b   5.51667065
_cell_length_c   5.51667065
_cell_angle_alpha   75.92085076
_cell_angle_beta   60.44781848
_cell_angle_gamma   60.44781848
_symmetry_Int_Tables_number   1
_chemical_formula_structural   Dy(TiGa2)2
_chemical_formula_sum   'Dy1 Ti2 Ga4'
_cell_volume   125.32675303
_cell_formula_units_Z   1
loop_
 _symmetry_equiv_pos_site_id
 _symmetry_equiv_pos_as_xyz
  1  'x, y, z'
loop_
 _atom_site_type_symbol
 _atom_site_label
 _atom_site_symmetry_multiplicity
 _atom_site_fract_x
 _atom_site_fract_y
 _atom_site_fract_z
 _atom_site_occupancy
  Dy  Dy1  1  0.000000  0.000000  0.000000  1.0
  Ti  Ti2  1  0.250000  0.500000  0.500000  1.0
  Ti  Ti3  1  0.750000  0.500000  0.500000  1.0
  Ga  Ga4  1  0.697633  0.000000  0.604735  1.0
  Ga  Ga5  1  0.302367  0.000000  0.395265  1.0
  Ga  Ga6  1  0.697633  0.604735  0.000000  1.0
  Ga  Ga7  1  0.302367  0.395265  0.000000  1.0
