# generated using pymatgen
data_Cd(AgI2)2
_symmetry_space_group_name_H-M   'P 1'
_cell_length_a   6.58027794
_cell_length_b   6.58027794
_cell_length_c   7.97838930
_cell_angle_alpha   114.35451568
_cell_angle_beta   114.35451568
_cell_angle_gamma   90.00000000
_symmetry_Int_Tables_number   1
_chemical_formula_structural   Cd(AgI2)2
_chemical_formula_sum   'Cd1 Ag2 I4'
_cell_volume   280.63203689
_cell_formula_units_Z   1
loop_
 _symmetry_equiv_pos_site_id
 _symmetry_equiv_pos_as_xyz
  1  'x, y, z'
loop_
 _atom_site_type_symbol
 _atom_site_label
 _atom_site_symmetry_multiplicity
 _atom_site_fract_x
 _atom_site_fract_y
 _atom_site_fract_z
 _atom_site_occupancy
  Cd  Cd1  1  0.000000  0.000000  0.000000  1.0
  Ag  Ag2  1  0.750000  0.250000  0.500000  1.0
  Ag  Ag3  1  0.250000  0.750000  0.500000  1.0
  I  I4  1  0.860615  0.860615  0.238493  1.0
  I  I5  1  0.377877  0.377877  0.238493  1.0
  I  I6  1  0.139385  0.622123  0.761507  1.0
  I  I7  1  0.622123  0.139385  0.761507  1.0
