# generated using pymatgen
data_Y2Fe2Si2C
_symmetry_space_group_name_H-M   'P 1'
_cell_length_a   3.92175948
_cell_length_b   5.62942307
_cell_length_c   5.64714925
_cell_angle_alpha   73.33143063
_cell_angle_beta   69.68179965
_cell_angle_gamma   69.61498229
_symmetry_Int_Tables_number   1
_chemical_formula_structural   Y2Fe2Si2C
_chemical_formula_sum   'Y2 Fe2 Si2 C1'
_cell_volume   107.62497677
_cell_formula_units_Z   1
loop_
 _symmetry_equiv_pos_site_id
 _symmetry_equiv_pos_as_xyz
  1  'x, y, z'
loop_
 _atom_site_type_symbol
 _atom_site_label
 _atom_site_symmetry_multiplicity
 _atom_site_fract_x
 _atom_site_fract_y
 _atom_site_fract_z
 _atom_site_occupancy
  Y  Y1  1  0.440057  0.825202  0.294685  1.0
  Y  Y2  1  0.559943  0.174798  0.705315  1.0
  Fe  Fe3  1  0.798908  0.306815  0.095370  1.0
  Fe  Fe4  1  0.201092  0.693185  0.904630  1.0
  Si  Si5  1  0.838054  0.606586  0.717306  1.0
  Si  Si6  1  0.161946  0.393414  0.282694  1.0
  C  C7  1  0.000000  0.000000  0.000000  1.0
