# generated using pymatgen
data_TlPPd5
_symmetry_space_group_name_H-M   'P 1'
_cell_length_a   4.00424710
_cell_length_b   4.00424710
_cell_length_c   7.11573674
_cell_angle_alpha   90.00000000
_cell_angle_beta   90.00000000
_cell_angle_gamma   90.00000000
_symmetry_Int_Tables_number   1
_chemical_formula_structural   TlPPd5
_chemical_formula_sum   'Tl1 P1 Pd5'
_cell_volume   114.09368616
_cell_formula_units_Z   1
loop_
 _symmetry_equiv_pos_site_id
 _symmetry_equiv_pos_as_xyz
  1  'x, y, z'
loop_
 _atom_site_type_symbol
 _atom_site_label
 _atom_site_symmetry_multiplicity
 _atom_site_fract_x
 _atom_site_fract_y
 _atom_site_fract_z
 _atom_site_occupancy
  Tl  Tl1  1  0.500000  0.500000  0.000000  1.0
  P  P2  1  0.000000  0.000000  0.500000  1.0
  Pd  Pd3  1  0.000000  0.000000  0.000000  1.0
  Pd  Pd4  1  0.500000  0.000000  0.696858  1.0
  Pd  Pd5  1  0.000000  0.500000  0.696858  1.0
  Pd  Pd6  1  0.500000  0.000000  0.303142  1.0
  Pd  Pd7  1  0.000000  0.500000  0.303142  1.0
