# generated using pymatgen
data_Nb3B4
_symmetry_space_group_name_H-M   'P 1'
_cell_length_a   3.15729669
_cell_length_b   3.32419611
_cell_length_c   7.44591183
_cell_angle_alpha   102.89840395
_cell_angle_beta   102.24049243
_cell_angle_gamma   90.00000000
_symmetry_Int_Tables_number   1
_chemical_formula_structural   Nb3B4
_chemical_formula_sum   'Nb3 B4'
_cell_volume   74.35278060
_cell_formula_units_Z   1
loop_
 _symmetry_equiv_pos_site_id
 _symmetry_equiv_pos_as_xyz
  1  'x, y, z'
loop_
 _atom_site_type_symbol
 _atom_site_label
 _atom_site_symmetry_multiplicity
 _atom_site_fract_x
 _atom_site_fract_y
 _atom_site_fract_z
 _atom_site_occupancy
  Nb  Nb1  1  0.500000  0.000000  0.000000  1.0
  Nb  Nb2  1  0.185140  0.185140  0.370280  1.0
  Nb  Nb3  1  0.814860  0.814860  0.629720  1.0
  B  B4  1  0.367714  0.367714  0.735427  1.0
  B  B5  1  0.632286  0.632286  0.264573  1.0
  B  B6  1  0.935684  0.435684  0.871367  1.0
  B  B7  1  0.064316  0.564316  0.128633  1.0
