# generated using pymatgen
data_V3Se4
_symmetry_space_group_name_H-M   'P 1'
_cell_length_a   3.40486577
_cell_length_b   6.18646281
_cell_length_c   6.89520634
_cell_angle_alpha   115.08849848
_cell_angle_beta   104.29420094
_cell_angle_gamma   90.00000000
_symmetry_Int_Tables_number   1
_chemical_formula_structural   V3Se4
_chemical_formula_sum   'V3 Se4'
_cell_volume   126.55571934
_cell_formula_units_Z   1
loop_
 _symmetry_equiv_pos_site_id
 _symmetry_equiv_pos_as_xyz
  1  'x, y, z'
loop_
 _atom_site_type_symbol
 _atom_site_label
 _atom_site_symmetry_multiplicity
 _atom_site_fract_x
 _atom_site_fract_y
 _atom_site_fract_z
 _atom_site_occupancy
  V  V1  1  0.255240  0.323173  0.510480  1.0
  V  V2  1  0.744760  0.676827  0.489520  1.0
  V  V3  1  0.000000  0.000000  0.000000  1.0
  Se  Se4  1  0.641235  0.979851  0.282469  1.0
  Se  Se5  1  0.358765  0.020149  0.717531  1.0
  Se  Se6  1  0.107211  0.452422  0.214421  1.0
  Se  Se7  1  0.892789  0.547578  0.785579  1.0
