# generated using pymatgen
data_Ti(NbSe2)2
_symmetry_space_group_name_H-M   'P 1'
_cell_length_a   3.50607347
_cell_length_b   6.39055126
_cell_length_c   7.20305336
_cell_angle_alpha   114.44817451
_cell_angle_beta   104.08576927
_cell_angle_gamma   90.00000000
_symmetry_Int_Tables_number   1
_chemical_formula_structural   Ti(NbSe2)2
_chemical_formula_sum   'Ti1 Nb2 Se4'
_cell_volume   141.57117125
_cell_formula_units_Z   1
loop_
 _symmetry_equiv_pos_site_id
 _symmetry_equiv_pos_as_xyz
  1  'x, y, z'
loop_
 _atom_site_type_symbol
 _atom_site_label
 _atom_site_symmetry_multiplicity
 _atom_site_fract_x
 _atom_site_fract_y
 _atom_site_fract_z
 _atom_site_occupancy
  Ti  Ti1  1  0.000000  0.000000  0.000000  1.0
  Nb  Nb2  1  0.743389  0.677001  0.486778  1.0
  Nb  Nb3  1  0.256611  0.322999  0.513222  1.0
  Se  Se4  1  0.101510  0.445504  0.203020  1.0
  Se  Se5  1  0.898490  0.554496  0.796980  1.0
  Se  Se6  1  0.362982  0.025144  0.725965  1.0
  Se  Se7  1  0.637018  0.974856  0.274035  1.0
