# generated using pymatgen
data_Mn2SnS4
_symmetry_space_group_name_H-M   'P 1'
_cell_length_a   3.67959686
_cell_length_b   6.37413699
_cell_length_c   6.37413699
_cell_angle_alpha   109.55315514
_cell_angle_beta   90.00000000
_cell_angle_gamma   90.00000000
_symmetry_Int_Tables_number   1
_chemical_formula_structural   Mn2SnS4
_chemical_formula_sum   'Mn2 Sn1 S4'
_cell_volume   140.87913912
_cell_formula_units_Z   1
loop_
 _symmetry_equiv_pos_site_id
 _symmetry_equiv_pos_as_xyz
  1  'x, y, z'
loop_
 _atom_site_type_symbol
 _atom_site_label
 _atom_site_symmetry_multiplicity
 _atom_site_fract_x
 _atom_site_fract_y
 _atom_site_fract_z
 _atom_site_occupancy
  Mn  Mn1  1  0.500000  0.000000  0.500000  1.0
  Mn  Mn2  1  0.500000  0.500000  0.000000  1.0
  Sn  Sn3  1  0.000000  0.000000  0.000000  1.0
  S  S4  1  0.000000  0.247842  0.752158  1.0
  S  S5  1  0.000000  0.752158  0.247842  1.0
  S  S6  1  0.500000  0.750880  0.750880  1.0
  S  S7  1  0.500000  0.249120  0.249120  1.0
