# generated using pymatgen
data_In2Ni3S2
_symmetry_space_group_name_H-M   'P 1'
_cell_length_a   5.43228289
_cell_length_b   5.43228295
_cell_length_c   5.51430062
_cell_angle_alpha   60.49080842
_cell_angle_beta   60.49080390
_cell_angle_gamma   60.00000002
_symmetry_Int_Tables_number   1
_chemical_formula_structural   In2Ni3S2
_chemical_formula_sum   'In2 Ni3 S2'
_cell_volume   115.91042690
_cell_formula_units_Z   1
loop_
 _symmetry_equiv_pos_site_id
 _symmetry_equiv_pos_as_xyz
  1  'x, y, z'
loop_
 _atom_site_type_symbol
 _atom_site_label
 _atom_site_symmetry_multiplicity
 _atom_site_fract_x
 _atom_site_fract_y
 _atom_site_fract_z
 _atom_site_occupancy
  In  In1  1  0.000000  0.000000  0.000000  1.0
  In  In2  1  0.500000  0.500000  0.500000  1.0
  Ni  Ni3  1  0.500000  0.000000  0.500000  1.0
  Ni  Ni4  1  0.000000  0.500000  0.500000  1.0
  Ni  Ni5  1  0.000000  0.000000  0.500000  1.0
  S  S6  1  0.723225  0.723225  0.830325  1.0
  S  S7  1  0.276775  0.276775  0.169675  1.0
