# generated using pymatgen
data_Tm(TiGa2)2
_symmetry_space_group_name_H-M   'P 1'
_cell_length_a   5.48882460
_cell_length_b   5.48882460
_cell_length_c   5.48882460
_cell_angle_alpha   104.18668269
_cell_angle_beta   104.18668269
_cell_angle_gamma   120.65289971
_symmetry_Int_Tables_number   1
_chemical_formula_structural   Tm(TiGa2)2
_chemical_formula_sum   'Tm1 Ti2 Ga4'
_cell_volume   123.60144787
_cell_formula_units_Z   1
loop_
 _symmetry_equiv_pos_site_id
 _symmetry_equiv_pos_as_xyz
  1  'x, y, z'
loop_
 _atom_site_type_symbol
 _atom_site_label
 _atom_site_symmetry_multiplicity
 _atom_site_fract_x
 _atom_site_fract_y
 _atom_site_fract_z
 _atom_site_occupancy
  Tm  Tm1  1  0.000000  0.000000  0.000000  1.0
  Ti  Ti2  1  0.750000  0.250000  0.500000  1.0
  Ti  Ti3  1  0.250000  0.750000  0.500000  1.0
  Ga  Ga4  1  0.698103  0.698103  0.396207  1.0
  Ga  Ga5  1  0.301897  0.301897  0.603793  1.0
  Ga  Ga6  1  0.301897  0.698103  0.000000  1.0
  Ga  Ga7  1  0.698103  0.301897  0.000000  1.0
