# generated using pymatgen
data_TiH
_symmetry_space_group_name_H-M   'P 1'
_cell_length_a   4.16697839
_cell_length_b   4.16697839
_cell_length_c   4.59999781
_cell_angle_alpha   90.00000000
_cell_angle_beta   90.00000000
_cell_angle_gamma   90.00000000
_symmetry_Int_Tables_number   1
_chemical_formula_structural   TiH
_chemical_formula_sum   'Ti4 H4'
_cell_volume   79.87302293
_cell_formula_units_Z   4
loop_
 _symmetry_equiv_pos_site_id
 _symmetry_equiv_pos_as_xyz
  1  'x, y, z'
loop_
 _atom_site_type_symbol
 _atom_site_label
 _atom_site_symmetry_multiplicity
 _atom_site_fract_x
 _atom_site_fract_y
 _atom_site_fract_z
 _atom_site_occupancy
  Ti  Ti1  1  0.750000  0.250000  0.750000  1.0
  Ti  Ti2  1  0.250000  0.750000  0.750000  1.0
  Ti  Ti3  1  0.250000  0.250000  0.250000  1.0
  Ti  Ti4  1  0.750000  0.750000  0.250000  1.0
  H  H5  1  0.500000  0.500000  0.500000  1.0
  H  H6  1  0.000000  0.000000  0.000000  1.0
  H  H7  1  0.500000  0.500000  0.000000  1.0
  H  H8  1  0.000000  0.000000  0.500000  1.0
