# generated using pymatgen
data_Lu(FeO2)2
_symmetry_space_group_name_H-M   'P 1'
_cell_length_a   3.46659285
_cell_length_b   3.47080893
_cell_length_c   8.69452177
_cell_angle_alpha   78.25187210
_cell_angle_beta   78.50075598
_cell_angle_gamma   60.04017453
_symmetry_Int_Tables_number   1
_chemical_formula_structural   Lu(FeO2)2
_chemical_formula_sum   'Lu1 Fe2 O4'
_cell_volume   88.14401019
_cell_formula_units_Z   1
loop_
 _symmetry_equiv_pos_site_id
 _symmetry_equiv_pos_as_xyz
  1  'x, y, z'
loop_
 _atom_site_type_symbol
 _atom_site_label
 _atom_site_symmetry_multiplicity
 _atom_site_fract_x
 _atom_site_fract_y
 _atom_site_fract_z
 _atom_site_occupancy
  Lu  Lu1  1  0.000000  0.000000  0.000000  1.0
  Fe  Fe2  1  0.220000  0.203033  0.356967  1.0
  Fe  Fe3  1  0.780000  0.796967  0.643033  1.0
  O  O4  1  0.295627  0.287736  0.121010  1.0
  O  O5  1  0.704373  0.712264  0.878990  1.0
  O  O6  1  0.126166  0.132741  0.614926  1.0
  O  O7  1  0.873834  0.867259  0.385074  1.0
