# generated using pymatgen
data_Er(TiGa2)2
_symmetry_space_group_name_H-M   'P 1'
_cell_length_a   5.45521113
_cell_length_b   5.49326329
_cell_length_c   5.49326329
_cell_angle_alpha   75.72664233
_cell_angle_beta   60.22888654
_cell_angle_gamma   60.22888654
_symmetry_Int_Tables_number   1
_chemical_formula_structural   Er(TiGa2)2
_chemical_formula_sum   'Er1 Ti2 Ga4'
_cell_volume   124.03028874
_cell_formula_units_Z   1
loop_
 _symmetry_equiv_pos_site_id
 _symmetry_equiv_pos_as_xyz
  1  'x, y, z'
loop_
 _atom_site_type_symbol
 _atom_site_label
 _atom_site_symmetry_multiplicity
 _atom_site_fract_x
 _atom_site_fract_y
 _atom_site_fract_z
 _atom_site_occupancy
  Er  Er1  1  0.000000  0.000000  0.000000  1.0
  Ti  Ti2  1  0.250000  0.500000  0.500000  1.0
  Ti  Ti3  1  0.750000  0.500000  0.500000  1.0
  Ga  Ga4  1  0.698770  0.000000  0.602460  1.0
  Ga  Ga5  1  0.301230  0.000000  0.397540  1.0
  Ga  Ga6  1  0.698770  0.602460  0.000000  1.0
  Ga  Ga7  1  0.301230  0.397540  0.000000  1.0
