# generated using pymatgen
data_Fe3Se4
_symmetry_space_group_name_H-M   'P 1'
_cell_length_a   3.45171317
_cell_length_b   6.08209073
_cell_length_c   6.34339928
_cell_angle_alpha   115.48436881
_cell_angle_beta   105.78755571
_cell_angle_gamma   90.00000000
_symmetry_Int_Tables_number   1
_chemical_formula_structural   Fe3Se4
_chemical_formula_sum   'Fe3 Se4'
_cell_volume   114.62374912
_cell_formula_units_Z   1
loop_
 _symmetry_equiv_pos_site_id
 _symmetry_equiv_pos_as_xyz
  1  'x, y, z'
loop_
 _atom_site_type_symbol
 _atom_site_label
 _atom_site_symmetry_multiplicity
 _atom_site_fract_x
 _atom_site_fract_y
 _atom_site_fract_z
 _atom_site_occupancy
  Fe  Fe1  1  0.000000  0.000000  0.000000  1.0
  Fe  Fe2  1  0.738555  0.690263  0.477110  1.0
  Fe  Fe3  1  0.261445  0.309737  0.522890  1.0
  Se  Se4  1  0.634945  0.977547  0.269889  1.0
  Se  Se5  1  0.365055  0.022453  0.730111  1.0
  Se  Se6  1  0.895138  0.560191  0.790277  1.0
  Se  Se7  1  0.104862  0.439809  0.209723  1.0
