# generated using pymatgen
data_V3S4
_symmetry_space_group_name_H-M   'P 1'
_cell_length_a   3.24801464
_cell_length_b   5.86339993
_cell_length_c   6.51628786
_cell_angle_alpha   114.49366079
_cell_angle_beta   104.43152464
_cell_angle_gamma   89.99999994
_symmetry_Int_Tables_number   1
_chemical_formula_structural   V3S4
_chemical_formula_sum   'V3 S4'
_cell_volume   108.61315520
_cell_formula_units_Z   1
loop_
 _symmetry_equiv_pos_site_id
 _symmetry_equiv_pos_as_xyz
  1  'x, y, z'
loop_
 _atom_site_type_symbol
 _atom_site_label
 _atom_site_symmetry_multiplicity
 _atom_site_fract_x
 _atom_site_fract_y
 _atom_site_fract_z
 _atom_site_occupancy
  V  V1  1  0.000000  0.000000  0.000000  1.0
  V  V2  1  0.257869  0.318827  0.515739  1.0
  V  V3  1  0.742131  0.681173  0.484261  1.0
  S  S4  1  0.359283  0.019076  0.718566  1.0
  S  S5  1  0.640717  0.980924  0.281434  1.0
  S  S6  1  0.890500  0.550787  0.780999  1.0
  S  S7  1  0.109500  0.449213  0.219001  1.0
