# generated using pymatgen
data_Ti2FeS4
_symmetry_space_group_name_H-M   'P 1'
_cell_length_a   3.36221738
_cell_length_b   5.90789144
_cell_length_c   6.64157167
_cell_angle_alpha   115.93128580
_cell_angle_beta   104.66216190
_cell_angle_gamma   90.00000002
_symmetry_Int_Tables_number   1
_chemical_formula_structural   Ti2FeS4
_chemical_formula_sum   'Ti2 Fe1 S4'
_cell_volume   113.84696958
_cell_formula_units_Z   1
loop_
 _symmetry_equiv_pos_site_id
 _symmetry_equiv_pos_as_xyz
  1  'x, y, z'
loop_
 _atom_site_type_symbol
 _atom_site_label
 _atom_site_symmetry_multiplicity
 _atom_site_fract_x
 _atom_site_fract_y
 _atom_site_fract_z
 _atom_site_occupancy
  Ti  Ti1  1  0.255098  0.244938  0.510197  1.0
  Ti  Ti2  1  0.744902  0.755062  0.489803  1.0
  Fe  Fe3  1  0.000000  0.000000  0.000000  1.0
  S  S4  1  0.881369  0.206490  0.762738  1.0
  S  S5  1  0.118631  0.793510  0.237262  1.0
  S  S6  1  0.376375  0.709026  0.752751  1.0
  S  S7  1  0.623625  0.290974  0.247249  1.0
