# generated using pymatgen
data_Ti2NiSe4
_symmetry_space_group_name_H-M   'P 1'
_cell_length_a   3.59223932
_cell_length_b   6.17075127
_cell_length_c   6.91517687
_cell_angle_alpha   116.25667757
_cell_angle_beta   105.05438734
_cell_angle_gamma   90.00000000
_symmetry_Int_Tables_number   1
_chemical_formula_structural   Ti2NiSe4
_chemical_formula_sum   'Ti2 Ni1 Se4'
_cell_volume   131.57971269
_cell_formula_units_Z   1
loop_
 _symmetry_equiv_pos_site_id
 _symmetry_equiv_pos_as_xyz
  1  'x, y, z'
loop_
 _atom_site_type_symbol
 _atom_site_label
 _atom_site_symmetry_multiplicity
 _atom_site_fract_x
 _atom_site_fract_y
 _atom_site_fract_z
 _atom_site_occupancy
  Ti  Ti1  1  0.747724  0.739430  0.495448  1.0
  Ti  Ti2  1  0.252276  0.260570  0.504552  1.0
  Ni  Ni3  1  0.000000  0.000000  0.000000  1.0
  Se  Se4  1  0.620347  0.954008  0.240695  1.0
  Se  Se5  1  0.379653  0.045992  0.759305  1.0
  Se  Se6  1  0.882521  0.547823  0.765042  1.0
  Se  Se7  1  0.117479  0.452177  0.234958  1.0
