# generated using pymatgen
data_V2FeS4
_symmetry_space_group_name_H-M   'P 1'
_cell_length_a   3.19962581
_cell_length_b   5.83325072
_cell_length_c   6.29282872
_cell_angle_alpha   114.97082931
_cell_angle_beta   104.71307934
_cell_angle_gamma   90.01099662
_symmetry_Int_Tables_number   1
_chemical_formula_structural   V2FeS4
_chemical_formula_sum   'V2 Fe1 S4'
_cell_volume   102.20490340
_cell_formula_units_Z   1
loop_
 _symmetry_equiv_pos_site_id
 _symmetry_equiv_pos_as_xyz
  1  'x, y, z'
loop_
 _atom_site_type_symbol
 _atom_site_label
 _atom_site_symmetry_multiplicity
 _atom_site_fract_x
 _atom_site_fract_y
 _atom_site_fract_z
 _atom_site_occupancy
  V  V1  1  0.740110  0.686247  0.480783  1.0
  V  V2  1  0.259890  0.313753  0.519217  1.0
  Fe  Fe3  1  0.000000  0.000000  0.000000  1.0
  S  S4  1  0.104526  0.437136  0.209226  1.0
  S  S5  1  0.895474  0.562864  0.790774  1.0
  S  S6  1  0.636459  0.976918  0.273090  1.0
  S  S7  1  0.363541  0.023082  0.726910  1.0
