# generated using pymatgen
data_Te3As2
_symmetry_space_group_name_H-M   'P 1'
_cell_length_a   4.06922434
_cell_length_b   7.77178539
_cell_length_c   10.14114160
_cell_angle_alpha   95.38836828
_cell_angle_beta   90.00000000
_cell_angle_gamma   105.17657956
_symmetry_Int_Tables_number   1
_chemical_formula_structural   Te3As2
_chemical_formula_sum   'Te6 As4'
_cell_volume   308.06093893
_cell_formula_units_Z   2
loop_
 _symmetry_equiv_pos_site_id
 _symmetry_equiv_pos_as_xyz
  1  'x, y, z'
loop_
 _atom_site_type_symbol
 _atom_site_label
 _atom_site_symmetry_multiplicity
 _atom_site_fract_x
 _atom_site_fract_y
 _atom_site_fract_z
 _atom_site_occupancy
  Te  Te1  1  0.042338  0.084676  0.287854  1.0
  Te  Te2  1  0.957662  0.915324  0.712146  1.0
  Te  Te3  1  0.782083  0.564167  0.335594  1.0
  Te  Te4  1  0.217917  0.435833  0.664406  1.0
  Te  Te5  1  0.369797  0.739595  0.030672  1.0
  Te  Te6  1  0.630203  0.260405  0.969328  1.0
  As  As7  1  0.625369  0.250739  0.439505  1.0
  As  As8  1  0.374631  0.749261  0.560495  1.0
  As  As9  1  0.205259  0.410518  0.140899  1.0
  As  As10  1  0.794741  0.589482  0.859101  1.0
