# generated using pymatgen
data_Ni3TeO6
_symmetry_space_group_name_H-M   'P 1'
_cell_length_a   5.16823269
_cell_length_b   5.16823270
_cell_length_c   5.51717181
_cell_angle_alpha   62.07100496
_cell_angle_beta   62.07100501
_cell_angle_gamma   60.00000046
_symmetry_Int_Tables_number   1
_chemical_formula_structural   Ni3TeO6
_chemical_formula_sum   'Ni3 Te1 O6'
_cell_volume   107.34792677
_cell_formula_units_Z   1
loop_
 _symmetry_equiv_pos_site_id
 _symmetry_equiv_pos_as_xyz
  1  'x, y, z'
loop_
 _atom_site_type_symbol
 _atom_site_label
 _atom_site_symmetry_multiplicity
 _atom_site_fract_x
 _atom_site_fract_y
 _atom_site_fract_z
 _atom_site_occupancy
  Ni  Ni1  1  0.998543  0.998543  0.004372  1.0
  Ni  Ni2  1  0.794407  0.794407  0.616779  1.0
  Ni  Ni3  1  0.506470  0.506470  0.480589  1.0
  Te  Te4  1  0.305321  0.305321  0.084037  1.0
  O  O5  1  0.204357  0.925780  0.294262  1.0
  O  O6  1  0.925780  0.575601  0.294262  1.0
  O  O7  1  0.575601  0.204357  0.294262  1.0
  O  O8  1  0.690094  0.101724  0.809779  1.0
  O  O9  1  0.101724  0.398403  0.809779  1.0
  O  O10  1  0.398403  0.690094  0.809779  1.0
