# generated using pymatgen
data_C
_symmetry_space_group_name_H-M   'P 1'
_cell_length_a   3.87714420
_cell_length_b   3.87714420
_cell_length_c   3.87714420
_cell_angle_alpha   109.47122063
_cell_angle_beta   109.47122063
_cell_angle_gamma   109.47122063
_symmetry_Int_Tables_number   1
_chemical_formula_structural   C
_chemical_formula_sum   C8
_cell_volume   44.86565067
_cell_formula_units_Z   8
loop_
 _symmetry_equiv_pos_site_id
 _symmetry_equiv_pos_as_xyz
  1  'x, y, z'
loop_
 _atom_site_type_symbol
 _atom_site_label
 _atom_site_symmetry_multiplicity
 _atom_site_fract_x
 _atom_site_fract_y
 _atom_site_fract_z
 _atom_site_occupancy
  C  C1  1  0.000000  0.500000  0.188271  1.0
  C  C2  1  0.188271  0.000000  0.500000  1.0
  C  C3  1  0.500000  0.188271  0.000000  1.0
  C  C4  1  0.311729  0.311729  0.311729  1.0
  C  C5  1  0.000000  0.500000  0.811729  1.0
  C  C6  1  0.811729  0.000000  0.500000  1.0
  C  C7  1  0.500000  0.811729  0.000000  1.0
  C  C8  1  0.688271  0.688271  0.688271  1.0
