# generated using pymatgen
data_Lu2Mo2C3
_symmetry_space_group_name_H-M   'P 1'
_cell_length_a   5.87162255
_cell_length_b   5.87162255
_cell_length_c   5.59872652
_cell_angle_alpha   71.64221184
_cell_angle_beta   108.35778816
_cell_angle_gamma   146.92871819
_symmetry_Int_Tables_number   1
_chemical_formula_structural   Lu2Mo2C3
_chemical_formula_sum   'Lu2 Mo2 C3'
_cell_volume   99.48164972
_cell_formula_units_Z   1
loop_
 _symmetry_equiv_pos_site_id
 _symmetry_equiv_pos_as_xyz
  1  'x, y, z'
loop_
 _atom_site_type_symbol
 _atom_site_label
 _atom_site_symmetry_multiplicity
 _atom_site_fract_x
 _atom_site_fract_y
 _atom_site_fract_z
 _atom_site_occupancy
  Lu  Lu1  1  0.616048  0.383950  0.817644  1.0
  Lu  Lu2  1  0.383950  0.616049  0.182357  1.0
  Mo  Mo3  1  0.852415  0.147583  0.633953  1.0
  Mo  Mo4  1  0.147583  0.852415  0.366046  1.0
  C  C5  1  0.268557  0.731441  0.747160  1.0
  C  C6  1  0.731442  0.268556  0.252841  1.0
  C  C7  1  0.999999  0.999999  0.500000  1.0
