# generated using pymatgen
data_TmAgSn
_symmetry_space_group_name_H-M   'P 1'
_cell_length_a   7.35866037
_cell_length_b   7.35866037
_cell_length_c   4.47632051
_cell_angle_alpha   90.00000000
_cell_angle_beta   90.00000000
_cell_angle_gamma   119.99999996
_symmetry_Int_Tables_number   1
_chemical_formula_structural   TmAgSn
_chemical_formula_sum   'Tm3 Ag3 Sn3'
_cell_volume   209.91782841
_cell_formula_units_Z   3
loop_
 _symmetry_equiv_pos_site_id
 _symmetry_equiv_pos_as_xyz
  1  'x, y, z'
loop_
 _atom_site_type_symbol
 _atom_site_label
 _atom_site_symmetry_multiplicity
 _atom_site_fract_x
 _atom_site_fract_y
 _atom_site_fract_z
 _atom_site_occupancy
  Tm  Tm1  1  0.000000  0.430709  0.000000  1.0
  Tm  Tm2  1  0.569291  0.569291  0.000000  1.0
  Tm  Tm3  1  0.430709  0.000000  0.000000  1.0
  Ag  Ag4  1  0.246798  0.246798  0.500000  1.0
  Ag  Ag5  1  0.753202  0.000000  0.500000  1.0
  Ag  Ag6  1  0.000000  0.753202  0.500000  1.0
  Sn  Sn7  1  0.333333  0.666667  0.500000  1.0
  Sn  Sn8  1  0.000000  0.000000  0.000000  1.0
  Sn  Sn9  1  0.666667  0.333333  0.500000  1.0
