# generated using pymatgen
data_DyCoSi2
_symmetry_space_group_name_H-M   'P 1'
_cell_length_a   3.98624243
_cell_length_b   4.02729022
_cell_length_c   8.35026031
_cell_angle_alpha   103.95427693
_cell_angle_beta   90.00000000
_cell_angle_gamma   90.00000000
_symmetry_Int_Tables_number   1
_chemical_formula_structural   DyCoSi2
_chemical_formula_sum   'Dy2 Co2 Si4'
_cell_volume   130.09692505
_cell_formula_units_Z   2
loop_
 _symmetry_equiv_pos_site_id
 _symmetry_equiv_pos_as_xyz
  1  'x, y, z'
loop_
 _atom_site_type_symbol
 _atom_site_label
 _atom_site_symmetry_multiplicity
 _atom_site_fract_x
 _atom_site_fract_y
 _atom_site_fract_z
 _atom_site_occupancy
  Dy  Dy1  1  0.250000  0.892738  0.785476  1.0
  Dy  Dy2  1  0.750000  0.107262  0.214524  1.0
  Co  Co3  1  0.250000  0.679407  0.358815  1.0
  Co  Co4  1  0.750000  0.320593  0.641185  1.0
  Si  Si5  1  0.750000  0.750133  0.500266  1.0
  Si  Si6  1  0.250000  0.249867  0.499734  1.0
  Si  Si7  1  0.750000  0.457505  0.915010  1.0
  Si  Si8  1  0.250000  0.542495  0.084990  1.0
