# generated using pymatgen
data_TbGa3
_symmetry_space_group_name_H-M   'P 1'
_cell_length_a   6.30065391
_cell_length_b   6.30065482
_cell_length_c   4.57088130
_cell_angle_alpha   90.00000000
_cell_angle_beta   90.00000000
_cell_angle_gamma   120.00000072
_symmetry_Int_Tables_number   1
_chemical_formula_structural   TbGa3
_chemical_formula_sum   'Tb2 Ga6'
_cell_volume   157.14547653
_cell_formula_units_Z   2
loop_
 _symmetry_equiv_pos_site_id
 _symmetry_equiv_pos_as_xyz
  1  'x, y, z'
loop_
 _atom_site_type_symbol
 _atom_site_label
 _atom_site_symmetry_multiplicity
 _atom_site_fract_x
 _atom_site_fract_y
 _atom_site_fract_z
 _atom_site_occupancy
  Tb  Tb1  1  0.333334  0.666668  0.750000  1.0
  Tb  Tb2  1  0.666667  0.333333  0.249999  1.0
  Ga  Ga3  1  0.147905  0.295808  0.249999  1.0
  Ga  Ga4  1  0.704192  0.852095  0.249999  1.0
  Ga  Ga5  1  0.147904  0.852095  0.249999  1.0
  Ga  Ga6  1  0.852096  0.704191  0.750000  1.0
  Ga  Ga7  1  0.295807  0.147904  0.750000  1.0
  Ga  Ga8  1  0.852094  0.147904  0.750000  1.0
