# generated using pymatgen
data_Mg3Cd
_symmetry_space_group_name_H-M   'P 1'
_cell_length_a   5.13952462
_cell_length_b   6.31107351
_cell_length_c   6.31107351
_cell_angle_alpha   119.99192293
_cell_angle_beta   90.00000000
_cell_angle_gamma   90.00000000
_symmetry_Int_Tables_number   1
_chemical_formula_structural   Mg3Cd
_chemical_formula_sum   'Mg6 Cd2'
_cell_volume   177.29455645
_cell_formula_units_Z   2
loop_
 _symmetry_equiv_pos_site_id
 _symmetry_equiv_pos_as_xyz
  1  'x, y, z'
loop_
 _atom_site_type_symbol
 _atom_site_label
 _atom_site_symmetry_multiplicity
 _atom_site_fract_x
 _atom_site_fract_y
 _atom_site_fract_z
 _atom_site_occupancy
  Mg  Mg1  1  0.750000  0.167572  0.335124  1.0
  Mg  Mg2  1  0.750000  0.167555  0.832445  1.0
  Mg  Mg3  1  0.750000  0.664876  0.832428  1.0
  Mg  Mg4  1  0.250000  0.832428  0.664876  1.0
  Mg  Mg5  1  0.250000  0.832445  0.167555  1.0
  Mg  Mg6  1  0.250000  0.335124  0.167572  1.0
  Cd  Cd7  1  0.750000  0.666684  0.333316  1.0
  Cd  Cd8  1  0.250000  0.333316  0.666684  1.0
