# generated using pymatgen
data_TiMnO3
_symmetry_space_group_name_H-M   'P 1'
_cell_length_a   5.19404666
_cell_length_b   5.19404666
_cell_length_c   5.65978346
_cell_angle_alpha   62.68670764
_cell_angle_beta   62.68670761
_cell_angle_gamma   59.99999710
_symmetry_Int_Tables_number   1
_chemical_formula_structural   TiMnO3
_chemical_formula_sum   'Ti2 Mn2 O6'
_cell_volume   112.14700527
_cell_formula_units_Z   2
loop_
 _symmetry_equiv_pos_site_id
 _symmetry_equiv_pos_as_xyz
  1  'x, y, z'
loop_
 _atom_site_type_symbol
 _atom_site_label
 _atom_site_symmetry_multiplicity
 _atom_site_fract_x
 _atom_site_fract_y
 _atom_site_fract_z
 _atom_site_occupancy
  Ti  Ti1  1  0.146534  0.146534  0.560399  1.0
  Ti  Ti2  1  0.853466  0.853466  0.439601  1.0
  Mn  Mn3  1  0.359104  0.359104  0.922687  1.0
  Mn  Mn4  1  0.640896  0.640896  0.077313  1.0
  O  O5  1  0.955536  0.213438  0.267984  1.0
  O  O6  1  0.213438  0.563041  0.267984  1.0
  O  O7  1  0.563041  0.955536  0.267984  1.0
  O  O8  1  0.044464  0.786562  0.732016  1.0
  O  O9  1  0.786562  0.436959  0.732016  1.0
  O  O10  1  0.436959  0.044464  0.732016  1.0
