# generated using pymatgen
data_Ta2AlC
_symmetry_space_group_name_H-M   'P 1'
_cell_length_a   3.10471134
_cell_length_b   3.10471134
_cell_length_c   13.93107414
_cell_angle_alpha   90.00000000
_cell_angle_beta   90.00000000
_cell_angle_gamma   120.01195257
_symmetry_Int_Tables_number   1
_chemical_formula_structural   Ta2AlC
_chemical_formula_sum   'Ta4 Al2 C2'
_cell_volume   116.28009319
_cell_formula_units_Z   2
loop_
 _symmetry_equiv_pos_site_id
 _symmetry_equiv_pos_as_xyz
  1  'x, y, z'
loop_
 _atom_site_type_symbol
 _atom_site_label
 _atom_site_symmetry_multiplicity
 _atom_site_fract_x
 _atom_site_fract_y
 _atom_site_fract_z
 _atom_site_occupancy
  Ta  Ta1  1  0.666671  0.333329  0.589730  1.0
  Ta  Ta2  1  0.333329  0.666671  0.410270  1.0
  Ta  Ta3  1  0.333329  0.666671  0.089730  1.0
  Ta  Ta4  1  0.666671  0.333329  0.910270  1.0
  Al  Al5  1  0.666681  0.333319  0.250000  1.0
  Al  Al6  1  0.333319  0.666681  0.750000  1.0
  C  C7  1  0.000000  0.000000  0.500000  1.0
  C  C8  1  0.000000  0.000000  0.000000  1.0
