# generated using pymatgen
data_YHg3
_symmetry_space_group_name_H-M   'P 1'
_cell_length_a   5.03666999
_cell_length_b   6.65819778
_cell_length_c   6.65819778
_cell_angle_alpha   120.01048631
_cell_angle_beta   90.00000000
_cell_angle_gamma   90.00000000
_symmetry_Int_Tables_number   1
_chemical_formula_structural   YHg3
_chemical_formula_sum   'Y2 Hg6'
_cell_volume   193.34885778
_cell_formula_units_Z   2
loop_
 _symmetry_equiv_pos_site_id
 _symmetry_equiv_pos_as_xyz
  1  'x, y, z'
loop_
 _atom_site_type_symbol
 _atom_site_label
 _atom_site_symmetry_multiplicity
 _atom_site_fract_x
 _atom_site_fract_y
 _atom_site_fract_z
 _atom_site_occupancy
  Y  Y1  1  0.750000  0.666684  0.333316  1.0
  Y  Y2  1  0.250000  0.333316  0.666684  1.0
  Hg  Hg3  1  0.750000  0.166086  0.332184  1.0
  Hg  Hg4  1  0.750000  0.166100  0.833900  1.0
  Hg  Hg5  1  0.750000  0.667816  0.833914  1.0
  Hg  Hg6  1  0.250000  0.833914  0.667816  1.0
  Hg  Hg7  1  0.250000  0.833900  0.166100  1.0
  Hg  Hg8  1  0.250000  0.332184  0.166086  1.0
