# generated using pymatgen
data_TiFeO3
_symmetry_space_group_name_H-M   'P 1'
_cell_length_a   5.17006372
_cell_length_b   5.17006372
_cell_length_c   5.57245899
_cell_angle_alpha   62.36131099
_cell_angle_beta   62.36131099
_cell_angle_gamma   59.99999674
_symmetry_Int_Tables_number   1
_chemical_formula_structural   TiFeO3
_chemical_formula_sum   'Ti2 Fe2 O6'
_cell_volume   108.92691143
_cell_formula_units_Z   2
loop_
 _symmetry_equiv_pos_site_id
 _symmetry_equiv_pos_as_xyz
  1  'x, y, z'
loop_
 _atom_site_type_symbol
 _atom_site_label
 _atom_site_symmetry_multiplicity
 _atom_site_fract_x
 _atom_site_fract_y
 _atom_site_fract_z
 _atom_site_occupancy
  Ti  Ti1  1  0.146237  0.146237  0.561288  1.0
  Ti  Ti2  1  0.853763  0.853763  0.438712  1.0
  Fe  Fe3  1  0.355197  0.355197  0.934410  1.0
  Fe  Fe4  1  0.644803  0.644803  0.065590  1.0
  O  O5  1  0.951019  0.219244  0.263317  1.0
  O  O6  1  0.219244  0.566420  0.263317  1.0
  O  O7  1  0.566420  0.951019  0.263317  1.0
  O  O8  1  0.048981  0.780756  0.736683  1.0
  O  O9  1  0.780756  0.433580  0.736683  1.0
  O  O10  1  0.433580  0.048981  0.736683  1.0
