# generated using pymatgen
data_TePb
_symmetry_space_group_name_H-M   'P 1'
_cell_length_a   4.69110655
_cell_length_b   7.09451770
_cell_length_c   8.43870842
_cell_angle_alpha   89.99790773
_cell_angle_beta   90.00292358
_cell_angle_gamma   90.00050750
_symmetry_Int_Tables_number   1
_chemical_formula_structural   TePb
_chemical_formula_sum   'Te4 Pb4'
_cell_volume   280.84982271
_cell_formula_units_Z   4
loop_
 _symmetry_equiv_pos_site_id
 _symmetry_equiv_pos_as_xyz
  1  'x, y, z'
loop_
 _atom_site_type_symbol
 _atom_site_label
 _atom_site_symmetry_multiplicity
 _atom_site_fract_x
 _atom_site_fract_y
 _atom_site_fract_z
 _atom_site_occupancy
  Te  Te1  1  0.250015  0.119590  0.193127  1.0
  Te  Te2  1  0.250018  0.380457  0.693137  1.0
  Te  Te3  1  0.749937  0.619393  0.306930  1.0
  Te  Te4  1  0.749912  0.880591  0.806909  1.0
  Pb  Pb5  1  0.249997  0.724879  0.042417  1.0
  Pb  Pb6  1  0.249968  0.775105  0.542399  1.0
  Pb  Pb7  1  0.750069  0.224595  0.457553  1.0
  Pb  Pb8  1  0.750084  0.275391  0.957528  1.0
