# generated using pymatgen
data_Tm2MgGe2
_symmetry_space_group_name_H-M   'P 1'
_cell_length_a   4.20154697
_cell_length_b   7.19276107
_cell_length_c   7.19276107
_cell_angle_alpha   90.00000000
_cell_angle_beta   90.00000000
_cell_angle_gamma   90.00000000
_symmetry_Int_Tables_number   1
_chemical_formula_structural   Tm2MgGe2
_chemical_formula_sum   'Tm4 Mg2 Ge4'
_cell_volume   217.37044335
_cell_formula_units_Z   2
loop_
 _symmetry_equiv_pos_site_id
 _symmetry_equiv_pos_as_xyz
  1  'x, y, z'
loop_
 _atom_site_type_symbol
 _atom_site_label
 _atom_site_symmetry_multiplicity
 _atom_site_fract_x
 _atom_site_fract_y
 _atom_site_fract_z
 _atom_site_occupancy
  Tm  Tm1  1  0.500000  0.177055  0.677055  1.0
  Tm  Tm2  1  0.500000  0.822945  0.322945  1.0
  Tm  Tm3  1  0.500000  0.322945  0.177055  1.0
  Tm  Tm4  1  0.500000  0.677055  0.822945  1.0
  Mg  Mg5  1  0.000000  0.500000  0.500000  1.0
  Mg  Mg6  1  0.000000  0.000000  0.000000  1.0
  Ge  Ge7  1  0.000000  0.375516  0.875516  1.0
  Ge  Ge8  1  0.000000  0.624484  0.124484  1.0
  Ge  Ge9  1  0.000000  0.124484  0.375516  1.0
  Ge  Ge10  1  0.000000  0.875516  0.624484  1.0
