# generated using pymatgen
data_HfS3
_symmetry_space_group_name_H-M   'P 1'
_cell_length_a   3.61156672
_cell_length_b   5.14921004
_cell_length_c   9.70602806
_cell_angle_alpha   96.98825289
_cell_angle_beta   90.00000000
_cell_angle_gamma   90.00000000
_symmetry_Int_Tables_number   1
_chemical_formula_structural   HfS3
_chemical_formula_sum   'Hf2 S6'
_cell_volume   179.15932841
_cell_formula_units_Z   2
loop_
 _symmetry_equiv_pos_site_id
 _symmetry_equiv_pos_as_xyz
  1  'x, y, z'
loop_
 _atom_site_type_symbol
 _atom_site_label
 _atom_site_symmetry_multiplicity
 _atom_site_fract_x
 _atom_site_fract_y
 _atom_site_fract_z
 _atom_site_occupancy
  Hf  Hf1  1  0.250000  0.283106  0.643291  1.0
  Hf  Hf2  1  0.750000  0.716894  0.356709  1.0
  S  S3  1  0.250000  0.883513  0.195640  1.0
  S  S4  1  0.750000  0.116487  0.804360  1.0
  S  S5  1  0.750000  0.238634  0.450333  1.0
  S  S6  1  0.250000  0.761366  0.549667  1.0
  S  S7  1  0.750000  0.521814  0.805773  1.0
  S  S8  1  0.250000  0.478186  0.194227  1.0
