# generated using pymatgen
data_V4Zn5
_symmetry_space_group_name_H-M   'P 1'
_cell_length_a   3.18295177
_cell_length_b   6.49961047
_cell_length_c   6.49961047
_cell_angle_alpha   86.56276802
_cell_angle_beta   75.82660641
_cell_angle_gamma   75.82660641
_symmetry_Int_Tables_number   1
_chemical_formula_structural   V4Zn5
_chemical_formula_sum   'V4 Zn5'
_cell_volume   126.40182473
_cell_formula_units_Z   1
loop_
 _symmetry_equiv_pos_site_id
 _symmetry_equiv_pos_as_xyz
  1  'x, y, z'
loop_
 _atom_site_type_symbol
 _atom_site_label
 _atom_site_symmetry_multiplicity
 _atom_site_fract_x
 _atom_site_fract_y
 _atom_site_fract_z
 _atom_site_occupancy
  V  V1  1  0.000000  0.344368  0.655632  1.0
  V  V2  1  0.000000  0.655632  0.344368  1.0
  V  V3  1  0.655632  0.344368  0.344368  1.0
  V  V4  1  0.344368  0.655632  0.655632  1.0
  Zn  Zn5  1  0.000000  0.000000  0.000000  1.0
  Zn  Zn6  1  0.329715  0.000000  0.340570  1.0
  Zn  Zn7  1  0.670285  0.000000  0.659430  1.0
  Zn  Zn8  1  0.670285  0.659430  0.000000  1.0
  Zn  Zn9  1  0.329715  0.340570  0.000000  1.0
