# generated using pymatgen
data_LuGa2Ni
_symmetry_space_group_name_H-M   'P 1'
_cell_length_a   4.11959523
_cell_length_b   5.33445837
_cell_length_c   6.58607194
_cell_angle_alpha   90.00000000
_cell_angle_beta   90.00000000
_cell_angle_gamma   112.71394734
_symmetry_Int_Tables_number   1
_chemical_formula_structural   LuGa2Ni
_chemical_formula_sum   'Lu2 Ga4 Ni2'
_cell_volume   133.50926806
_cell_formula_units_Z   2
loop_
 _symmetry_equiv_pos_site_id
 _symmetry_equiv_pos_as_xyz
  1  'x, y, z'
loop_
 _atom_site_type_symbol
 _atom_site_label
 _atom_site_symmetry_multiplicity
 _atom_site_fract_x
 _atom_site_fract_y
 _atom_site_fract_z
 _atom_site_occupancy
  Lu  Lu1  1  0.424858  0.849716  0.250000  1.0
  Lu  Lu2  1  0.575142  0.150284  0.750000  1.0
  Ga  Ga3  1  0.139298  0.278596  0.052607  1.0
  Ga  Ga4  1  0.860702  0.721404  0.947393  1.0
  Ga  Ga5  1  0.860702  0.721404  0.552607  1.0
  Ga  Ga6  1  0.139298  0.278596  0.447393  1.0
  Ni  Ni7  1  0.707946  0.415892  0.250000  1.0
  Ni  Ni8  1  0.292054  0.584108  0.750000  1.0
