# generated using pymatgen
data_Nb2InC
_symmetry_space_group_name_H-M   'P 1'
_cell_length_a   3.20281080
_cell_length_b   3.20281080
_cell_length_c   14.51712953
_cell_angle_alpha   90.00000000
_cell_angle_beta   90.00000000
_cell_angle_gamma   119.99562820
_symmetry_Int_Tables_number   1
_chemical_formula_structural   Nb2InC
_chemical_formula_sum   'Nb4 In2 C2'
_cell_volume   128.97130150
_cell_formula_units_Z   2
loop_
 _symmetry_equiv_pos_site_id
 _symmetry_equiv_pos_as_xyz
  1  'x, y, z'
loop_
 _atom_site_type_symbol
 _atom_site_label
 _atom_site_symmetry_multiplicity
 _atom_site_fract_x
 _atom_site_fract_y
 _atom_site_fract_z
 _atom_site_occupancy
  Nb  Nb1  1  0.666691  0.333309  0.582092  1.0
  Nb  Nb2  1  0.333309  0.666691  0.417908  1.0
  Nb  Nb3  1  0.333309  0.666691  0.082092  1.0
  Nb  Nb4  1  0.666691  0.333309  0.917908  1.0
  In  In5  1  0.666698  0.333302  0.250000  1.0
  In  In6  1  0.333302  0.666698  0.750000  1.0
  C  C7  1  0.000000  0.000000  0.500000  1.0
  C  C8  1  0.000000  0.000000  0.000000  1.0
