# generated using pymatgen
data_BW
_symmetry_space_group_name_H-M   'P 1'
_cell_length_a   3.14574256
_cell_length_b   3.14574257
_cell_length_c   8.80738826
_cell_angle_alpha   100.28737632
_cell_angle_beta   100.28737635
_cell_angle_gamma   90.00000007
_symmetry_Int_Tables_number   1
_chemical_formula_structural   BW
_chemical_formula_sum   'B4 W4'
_cell_volume   84.32982078
_cell_formula_units_Z   4
loop_
 _symmetry_equiv_pos_site_id
 _symmetry_equiv_pos_as_xyz
  1  'x, y, z'
loop_
 _atom_site_type_symbol
 _atom_site_label
 _atom_site_symmetry_multiplicity
 _atom_site_fract_x
 _atom_site_fract_y
 _atom_site_fract_z
 _atom_site_occupancy
  B  B1  1  0.781201  0.031201  0.062402  1.0
  B  B2  1  0.531201  0.281201  0.562402  1.0
  B  B3  1  0.218799  0.968799  0.937598  1.0
  B  B4  1  0.468799  0.718799  0.437598  1.0
  W  W5  1  0.928139  0.178139  0.356279  1.0
  W  W6  1  0.678139  0.428139  0.856279  1.0
  W  W7  1  0.071861  0.821861  0.643721  1.0
  W  W8  1  0.321861  0.571861  0.143721  1.0
