# generated using pymatgen
data_V2B3
_symmetry_space_group_name_H-M   'P 1'
_cell_length_a   2.97819200
_cell_length_b   3.03759033
_cell_length_c   9.32356671
_cell_angle_alpha   99.37517655
_cell_angle_beta   90.00000000
_cell_angle_gamma   90.00000000
_symmetry_Int_Tables_number   1
_chemical_formula_structural   V2B3
_chemical_formula_sum   'V4 B6'
_cell_volume   83.21927752
_cell_formula_units_Z   2
loop_
 _symmetry_equiv_pos_site_id
 _symmetry_equiv_pos_as_xyz
  1  'x, y, z'
loop_
 _atom_site_type_symbol
 _atom_site_label
 _atom_site_symmetry_multiplicity
 _atom_site_fract_x
 _atom_site_fract_y
 _atom_site_fract_z
 _atom_site_occupancy
  V  V1  1  0.750000  0.429353  0.858707  1.0
  V  V2  1  0.250000  0.570647  0.141293  1.0
  V  V3  1  0.750000  0.705023  0.410047  1.0
  V  V4  1  0.250000  0.294977  0.589953  1.0
  B  B5  1  0.750000  0.023636  0.047271  1.0
  B  B6  1  0.250000  0.976364  0.952729  1.0
  B  B7  1  0.750000  0.117888  0.235777  1.0
  B  B8  1  0.250000  0.882112  0.764223  1.0
  B  B9  1  0.750000  0.831017  0.662035  1.0
  B  B10  1  0.250000  0.168983  0.337965  1.0
