# generated using pymatgen
data_PrZnSbO
_symmetry_space_group_name_H-M   'P 1'
_cell_length_a   4.20950300
_cell_length_b   4.20950300
_cell_length_c   9.66900454
_cell_angle_alpha   90.00000000
_cell_angle_beta   90.00000000
_cell_angle_gamma   90.00000000
_symmetry_Int_Tables_number   1
_chemical_formula_structural   PrZnSbO
_chemical_formula_sum   'Pr2 Zn2 Sb2 O2'
_cell_volume   171.33394349
_cell_formula_units_Z   2
loop_
 _symmetry_equiv_pos_site_id
 _symmetry_equiv_pos_as_xyz
  1  'x, y, z'
loop_
 _atom_site_type_symbol
 _atom_site_label
 _atom_site_symmetry_multiplicity
 _atom_site_fract_x
 _atom_site_fract_y
 _atom_site_fract_z
 _atom_site_occupancy
  Pr  Pr1  1  0.250002  0.250002  0.117739  1.0
  Pr  Pr2  1  0.750000  0.750000  0.882260  1.0
  Zn  Zn3  1  0.750000  0.250002  0.500000  1.0
  Zn  Zn4  1  0.250002  0.750000  0.500000  1.0
  Sb  Sb5  1  0.250002  0.250002  0.681348  1.0
  Sb  Sb6  1  0.750000  0.750000  0.318650  1.0
  O  O7  1  0.750000  0.250002  0.000000  1.0
  O  O8  1  0.250002  0.750000  0.000000  1.0
