# generated using pymatgen
data_ZrAlNi
_symmetry_space_group_name_H-M   'P 1'
_cell_length_a   3.50853034
_cell_length_b   6.90772970
_cell_length_c   6.90716467
_cell_angle_alpha   120.00270371
_cell_angle_beta   90.00000000
_cell_angle_gamma   90.00000000
_symmetry_Int_Tables_number   1
_chemical_formula_structural   ZrAlNi
_chemical_formula_sum   'Zr3 Al3 Ni3'
_cell_volume   144.97034771
_cell_formula_units_Z   3
loop_
 _symmetry_equiv_pos_site_id
 _symmetry_equiv_pos_as_xyz
  1  'x, y, z'
loop_
 _atom_site_type_symbol
 _atom_site_label
 _atom_site_symmetry_multiplicity
 _atom_site_fract_x
 _atom_site_fract_y
 _atom_site_fract_z
 _atom_site_occupancy
  Zr  Zr1  1  0.500000  0.592952  0.000000  1.0
  Zr  Zr2  1  0.500000  0.407024  0.407037  1.0
  Zr  Zr3  1  0.500000  0.999988  0.592963  1.0
  Al  Al4  1  0.000000  0.249448  0.000000  1.0
  Al  Al5  1  0.000000  0.750544  0.750578  1.0
  Al  Al6  1  0.000000  0.999967  0.249422  1.0
  Ni  Ni7  1  0.500000  0.000001  0.000000  1.0
  Ni  Ni8  1  0.000000  0.333340  0.666703  1.0
  Ni  Ni9  1  0.000000  0.666636  0.333297  1.0
