# generated using pymatgen
data_Ti3In
_symmetry_space_group_name_H-M   'P 1'
_cell_length_a   5.92719053
_cell_length_b   5.92679157
_cell_length_c   4.79101873
_cell_angle_alpha   90.00000000
_cell_angle_beta   90.00000000
_cell_angle_gamma   120.00037727
_symmetry_Int_Tables_number   1
_chemical_formula_structural   Ti3In
_chemical_formula_sum   'Ti6 In2'
_cell_volume   145.75564772
_cell_formula_units_Z   2
loop_
 _symmetry_equiv_pos_site_id
 _symmetry_equiv_pos_as_xyz
  1  'x, y, z'
loop_
 _atom_site_type_symbol
 _atom_site_label
 _atom_site_symmetry_multiplicity
 _atom_site_fract_x
 _atom_site_fract_y
 _atom_site_fract_z
 _atom_site_occupancy
  Ti  Ti1  1  0.164231  0.328469  0.250000  1.0
  Ti  Ti2  1  0.671490  0.835721  0.250000  1.0
  Ti  Ti3  1  0.164283  0.835756  0.250000  1.0
  Ti  Ti4  1  0.835718  0.671514  0.750000  1.0
  Ti  Ti5  1  0.328497  0.164244  0.750000  1.0
  Ti  Ti6  1  0.835770  0.164294  0.750000  1.0
  In  In7  1  0.333359  0.666658  0.750000  1.0
  In  In8  1  0.666653  0.333338  0.250000  1.0
