# generated using pymatgen
data_NbSi2
_symmetry_space_group_name_H-M   'P 1'
_cell_length_a   4.81766889
_cell_length_b   4.81766890
_cell_length_c   6.62329755
_cell_angle_alpha   90.00000000
_cell_angle_beta   90.00000000
_cell_angle_gamma   120.00000003
_symmetry_Int_Tables_number   1
_chemical_formula_structural   NbSi2
_chemical_formula_sum   'Nb3 Si6'
_cell_volume   133.13087772
_cell_formula_units_Z   3
loop_
 _symmetry_equiv_pos_site_id
 _symmetry_equiv_pos_as_xyz
  1  'x, y, z'
loop_
 _atom_site_type_symbol
 _atom_site_label
 _atom_site_symmetry_multiplicity
 _atom_site_fract_x
 _atom_site_fract_y
 _atom_site_fract_z
 _atom_site_occupancy
  Nb  Nb1  1  0.000000  0.500000  0.166667  1.0
  Nb  Nb2  1  0.500000  0.500000  0.833333  1.0
  Nb  Nb3  1  0.500000  0.000000  0.500000  1.0
  Si  Si4  1  0.840762  0.681524  0.500000  1.0
  Si  Si5  1  0.159238  0.840762  0.833333  1.0
  Si  Si6  1  0.681524  0.840762  0.166667  1.0
  Si  Si7  1  0.159238  0.318476  0.500000  1.0
  Si  Si8  1  0.840762  0.159238  0.833333  1.0
  Si  Si9  1  0.318476  0.159238  0.166667  1.0
