# generated using pymatgen
data_Na3AlAs2
_symmetry_space_group_name_H-M   'P 1'
_cell_length_a   6.23650159
_cell_length_b   7.00585093
_cell_length_c   8.29844644
_cell_angle_alpha   114.96839222
_cell_angle_beta   112.07149114
_cell_angle_gamma   89.99999998
_symmetry_Int_Tables_number   1
_chemical_formula_structural   Na3AlAs2
_chemical_formula_sum   'Na6 Al2 As4'
_cell_volume   299.12348436
_cell_formula_units_Z   2
loop_
 _symmetry_equiv_pos_site_id
 _symmetry_equiv_pos_as_xyz
  1  'x, y, z'
loop_
 _atom_site_type_symbol
 _atom_site_label
 _atom_site_symmetry_multiplicity
 _atom_site_fract_x
 _atom_site_fract_y
 _atom_site_fract_z
 _atom_site_occupancy
  Na  Na1  1  0.310525  0.625104  0.621049  1.0
  Na  Na2  1  0.689475  0.374896  0.378951  1.0
  Na  Na3  1  0.189475  0.004055  0.378951  1.0
  Na  Na4  1  0.810525  0.995945  0.621049  1.0
  Na  Na5  1  0.250000  0.500000  0.000000  1.0
  Na  Na6  1  0.750000  0.500000  0.000000  1.0
  Al  Al7  1  0.750000  0.000000  0.000000  1.0
  Al  Al8  1  0.250000  0.000000  0.000000  1.0
  As  As9  1  0.896585  0.695081  0.793171  1.0
  As  As10  1  0.103415  0.304919  0.206829  1.0
  As  As11  1  0.603415  0.901911  0.206829  1.0
  As  As12  1  0.396585  0.098089  0.793171  1.0
