# generated using pymatgen
data_TbHg3
_symmetry_space_group_name_H-M   'P 1'
_cell_length_a   5.03866347
_cell_length_b   6.66584885
_cell_length_c   6.66584885
_cell_angle_alpha   120.00897080
_cell_angle_beta   90.00000000
_cell_angle_gamma   90.00000000
_symmetry_Int_Tables_number   1
_chemical_formula_structural   TbHg3
_chemical_formula_sum   'Tb2 Hg6'
_cell_volume   193.87313926
_cell_formula_units_Z   2
loop_
 _symmetry_equiv_pos_site_id
 _symmetry_equiv_pos_as_xyz
  1  'x, y, z'
loop_
 _atom_site_type_symbol
 _atom_site_label
 _atom_site_symmetry_multiplicity
 _atom_site_fract_x
 _atom_site_fract_y
 _atom_site_fract_z
 _atom_site_occupancy
  Tb  Tb1  1  0.750000  0.666687  0.333313  1.0
  Tb  Tb2  1  0.250000  0.333313  0.666687  1.0
  Hg  Hg3  1  0.750000  0.166209  0.332427  1.0
  Hg  Hg4  1  0.750000  0.166213  0.833787  1.0
  Hg  Hg5  1  0.750000  0.667573  0.833791  1.0
  Hg  Hg6  1  0.250000  0.833791  0.667573  1.0
  Hg  Hg7  1  0.250000  0.833787  0.166213  1.0
  Hg  Hg8  1  0.250000  0.332427  0.166209  1.0
