# generated using pymatgen
data_CoGe
_symmetry_space_group_name_H-M   'P 1'
_cell_length_a   3.75757822
_cell_length_b   4.92774346
_cell_length_c   6.15633073
_cell_angle_alpha   99.17635954
_cell_angle_beta   107.76899442
_cell_angle_gamma   89.99999998
_symmetry_Int_Tables_number   1
_chemical_formula_structural   CoGe
_chemical_formula_sum   'Co4 Ge4'
_cell_volume   107.02192916
_cell_formula_units_Z   4
loop_
 _symmetry_equiv_pos_site_id
 _symmetry_equiv_pos_as_xyz
  1  'x, y, z'
loop_
 _atom_site_type_symbol
 _atom_site_label
 _atom_site_symmetry_multiplicity
 _atom_site_fract_x
 _atom_site_fract_y
 _atom_site_fract_z
 _atom_site_occupancy
  Co  Co1  1  0.000000  0.000000  0.000000  1.0
  Co  Co2  1  0.000000  0.500000  0.000000  1.0
  Co  Co3  1  0.803037  0.673951  0.606074  1.0
  Co  Co4  1  0.196963  0.326049  0.393926  1.0
  Ge  Ge5  1  0.816839  0.181048  0.633678  1.0
  Ge  Ge6  1  0.183161  0.818952  0.366322  1.0
  Ge  Ge7  1  0.570051  0.282262  0.140102  1.0
  Ge  Ge8  1  0.429949  0.717738  0.859898  1.0
