# generated using pymatgen
data_Y2MgGe2
_symmetry_space_group_name_H-M   'P 1'
_cell_length_a   4.27890210
_cell_length_b   7.27026413
_cell_length_c   7.27026413
_cell_angle_alpha   90.00000000
_cell_angle_beta   90.00000000
_cell_angle_gamma   90.00000000
_symmetry_Int_Tables_number   1
_chemical_formula_structural   Y2MgGe2
_chemical_formula_sum   'Y4 Mg2 Ge4'
_cell_volume   226.16881801
_cell_formula_units_Z   2
loop_
 _symmetry_equiv_pos_site_id
 _symmetry_equiv_pos_as_xyz
  1  'x, y, z'
loop_
 _atom_site_type_symbol
 _atom_site_label
 _atom_site_symmetry_multiplicity
 _atom_site_fract_x
 _atom_site_fract_y
 _atom_site_fract_z
 _atom_site_occupancy
  Y  Y1  1  0.500000  0.177624  0.677624  1.0
  Y  Y2  1  0.500000  0.822376  0.322376  1.0
  Y  Y3  1  0.500000  0.322376  0.177624  1.0
  Y  Y4  1  0.500000  0.677624  0.822376  1.0
  Mg  Mg5  1  0.000000  0.500000  0.500000  1.0
  Mg  Mg6  1  0.000000  0.000000  0.000000  1.0
  Ge  Ge7  1  0.000000  0.376410  0.876410  1.0
  Ge  Ge8  1  0.000000  0.623590  0.123590  1.0
  Ge  Ge9  1  0.000000  0.123590  0.376410  1.0
  Ge  Ge10  1  0.000000  0.876410  0.623590  1.0
