# generated using pymatgen
data_SmFeAsO
_symmetry_space_group_name_H-M   'P 1'
_cell_length_a   4.02649214
_cell_length_b   4.02649214
_cell_length_c   9.04675456
_cell_angle_alpha   90.00000000
_cell_angle_beta   90.00000000
_cell_angle_gamma   90.01134260
_symmetry_Int_Tables_number   1
_chemical_formula_structural   SmFeAsO
_chemical_formula_sum   'Sm2 Fe2 As2 O2'
_cell_volume   146.67176251
_cell_formula_units_Z   2
loop_
 _symmetry_equiv_pos_site_id
 _symmetry_equiv_pos_as_xyz
  1  'x, y, z'
loop_
 _atom_site_type_symbol
 _atom_site_label
 _atom_site_symmetry_multiplicity
 _atom_site_fract_x
 _atom_site_fract_y
 _atom_site_fract_z
 _atom_site_occupancy
  Sm  Sm1  1  0.250000  0.750000  0.125732  1.0
  Sm  Sm2  1  0.750000  0.250000  0.874268  1.0
  Fe  Fe3  1  0.250000  0.250000  0.500000  1.0
  Fe  Fe4  1  0.750000  0.750000  0.500000  1.0
  As  As5  1  0.250000  0.750000  0.678659  1.0
  As  As6  1  0.750000  0.250000  0.321341  1.0
  O  O7  1  0.250000  0.250000  0.000000  1.0
  O  O8  1  0.750000  0.750000  0.000000  1.0
