# generated using pymatgen
data_TlCuS2
_symmetry_space_group_name_H-M   'P 1'
_cell_length_a   5.68644082
_cell_length_b   5.68644082
_cell_length_c   6.96875344
_cell_angle_alpha   114.07898383
_cell_angle_beta   114.07898383
_cell_angle_gamma   90.00000000
_symmetry_Int_Tables_number   1
_chemical_formula_structural   TlCuS2
_chemical_formula_sum   'Tl2 Cu2 S4'
_cell_volume   184.04534511
_cell_formula_units_Z   2
loop_
 _symmetry_equiv_pos_site_id
 _symmetry_equiv_pos_as_xyz
  1  'x, y, z'
loop_
 _atom_site_type_symbol
 _atom_site_label
 _atom_site_symmetry_multiplicity
 _atom_site_fract_x
 _atom_site_fract_y
 _atom_site_fract_z
 _atom_site_occupancy
  Tl  Tl1  1  0.750000  0.250000  0.500000  1.0
  Tl  Tl2  1  0.500000  0.500000  0.000000  1.0
  Cu  Cu3  1  0.250000  0.750000  0.500000  1.0
  Cu  Cu4  1  0.000000  0.000000  0.000000  1.0
  S  S5  1  0.125000  0.674434  0.750000  1.0
  S  S6  1  0.625000  0.075566  0.750000  1.0
  S  S7  1  0.325566  0.375000  0.250000  1.0
  S  S8  1  0.924434  0.875000  0.250000  1.0
