# generated using pymatgen
data_InCuO2
_symmetry_space_group_name_H-M   'P 1'
_cell_length_a   3.35980368
_cell_length_b   3.35980406
_cell_length_c   11.64347334
_cell_angle_alpha   90.00000000
_cell_angle_beta   90.00000000
_cell_angle_gamma   119.99999624
_symmetry_Int_Tables_number   1
_chemical_formula_structural   InCuO2
_chemical_formula_sum   'In2 Cu2 O4'
_cell_volume   113.82588962
_cell_formula_units_Z   2
loop_
 _symmetry_equiv_pos_site_id
 _symmetry_equiv_pos_as_xyz
  1  'x, y, z'
loop_
 _atom_site_type_symbol
 _atom_site_label
 _atom_site_symmetry_multiplicity
 _atom_site_fract_x
 _atom_site_fract_y
 _atom_site_fract_z
 _atom_site_occupancy
  In  In1  1  0.000000  0.000000  0.000000  1.0
  In  In2  1  0.000000  0.000000  0.500000  1.0
  Cu  Cu3  1  0.666667  0.333333  0.750016  1.0
  Cu  Cu4  1  0.333333  0.666667  0.249984  1.0
  O  O5  1  0.333333  0.666667  0.091326  1.0
  O  O6  1  0.666667  0.333333  0.591324  1.0
  O  O7  1  0.333333  0.666667  0.408676  1.0
  O  O8  1  0.666667  0.333333  0.908674  1.0
