# generated using pymatgen
data_TmGa2Ni
_symmetry_space_group_name_H-M   'P 1'
_cell_length_a   4.10606394
_cell_length_b   5.38252048
_cell_length_c   6.65175288
_cell_angle_alpha   90.00000000
_cell_angle_beta   90.00000000
_cell_angle_gamma   112.42202559
_symmetry_Int_Tables_number   1
_chemical_formula_structural   TmGa2Ni
_chemical_formula_sum   'Tm2 Ga4 Ni2'
_cell_volume   135.89616316
_cell_formula_units_Z   2
loop_
 _symmetry_equiv_pos_site_id
 _symmetry_equiv_pos_as_xyz
  1  'x, y, z'
loop_
 _atom_site_type_symbol
 _atom_site_label
 _atom_site_symmetry_multiplicity
 _atom_site_fract_x
 _atom_site_fract_y
 _atom_site_fract_z
 _atom_site_occupancy
  Tm  Tm1  1  0.427937  0.855874  0.250000  1.0
  Tm  Tm2  1  0.572063  0.144126  0.750000  1.0
  Ga  Ga3  1  0.141919  0.283839  0.053428  1.0
  Ga  Ga4  1  0.858081  0.716161  0.946572  1.0
  Ga  Ga5  1  0.858081  0.716161  0.553428  1.0
  Ga  Ga6  1  0.141919  0.283839  0.446572  1.0
  Ni  Ni7  1  0.711423  0.422847  0.250000  1.0
  Ni  Ni8  1  0.288577  0.577153  0.750000  1.0
