# generated using pymatgen
data_Co3W
_symmetry_space_group_name_H-M   'P 1'
_cell_length_a   4.09275054
_cell_length_b   5.11371185
_cell_length_c   5.11319839
_cell_angle_alpha   120.00022441
_cell_angle_beta   90.00000000
_cell_angle_gamma   90.00000000
_symmetry_Int_Tables_number   1
_chemical_formula_structural   Co3W
_chemical_formula_sum   'Co6 W2'
_cell_volume   92.67739545
_cell_formula_units_Z   2
loop_
 _symmetry_equiv_pos_site_id
 _symmetry_equiv_pos_as_xyz
  1  'x, y, z'
loop_
 _atom_site_type_symbol
 _atom_site_label
 _atom_site_symmetry_multiplicity
 _atom_site_fract_x
 _atom_site_fract_y
 _atom_site_fract_z
 _atom_site_occupancy
  Co  Co1  1  0.750000  0.161748  0.323436  1.0
  Co  Co2  1  0.750000  0.161740  0.838233  1.0
  Co  Co3  1  0.750000  0.676499  0.838265  1.0
  Co  Co4  1  0.250000  0.838252  0.676564  1.0
  Co  Co5  1  0.250000  0.838260  0.161767  1.0
  Co  Co6  1  0.250000  0.323501  0.161735  1.0
  W  W7  1  0.750000  0.666664  0.333361  1.0
  W  W8  1  0.250000  0.333336  0.666639  1.0
