# generated using pymatgen
data_Cu3SbSe4
_symmetry_space_group_name_H-M   'P 1'
_cell_length_a   5.72125338
_cell_length_b   5.72125339
_cell_length_c   6.97961713
_cell_angle_alpha   114.19568783
_cell_angle_beta   114.19568792
_cell_angle_gamma   89.99999999
_symmetry_Int_Tables_number   1
_chemical_formula_structural   Cu3SbSe4
_chemical_formula_sum   'Cu3 Sb1 Se4'
_cell_volume   186.17042115
_cell_formula_units_Z   1
loop_
 _symmetry_equiv_pos_site_id
 _symmetry_equiv_pos_as_xyz
  1  'x, y, z'
loop_
 _atom_site_type_symbol
 _atom_site_label
 _atom_site_symmetry_multiplicity
 _atom_site_fract_x
 _atom_site_fract_y
 _atom_site_fract_z
 _atom_site_occupancy
  Cu  Cu1  1  0.750000  0.250000  0.500000  1.0
  Cu  Cu2  1  0.500000  0.500000  0.000000  1.0
  Cu  Cu3  1  0.250000  0.750000  0.500000  1.0
  Sb  Sb4  1  0.000000  0.000000  0.000000  1.0
  Se  Se5  1  0.132401  0.132401  0.731716  1.0
  Se  Se6  1  0.599315  0.599315  0.731716  1.0
  Se  Se7  1  0.867599  0.400685  0.268284  1.0
  Se  Se8  1  0.400685  0.867599  0.268284  1.0
