# generated using pymatgen
data_NaNbO3
_symmetry_space_group_name_H-M   'P 1'
_cell_length_a   4.01795037
_cell_length_b   5.57351553
_cell_length_c   5.57351553
_cell_angle_alpha   90.00000000
_cell_angle_beta   90.00000000
_cell_angle_gamma   90.00000000
_symmetry_Int_Tables_number   1
_chemical_formula_structural   NaNbO3
_chemical_formula_sum   'Na2 Nb2 O6'
_cell_volume   124.81391310
_cell_formula_units_Z   2
loop_
 _symmetry_equiv_pos_site_id
 _symmetry_equiv_pos_as_xyz
  1  'x, y, z'
loop_
 _atom_site_type_symbol
 _atom_site_label
 _atom_site_symmetry_multiplicity
 _atom_site_fract_x
 _atom_site_fract_y
 _atom_site_fract_z
 _atom_site_occupancy
  Na  Na1  1  0.500000  0.500000  0.000000  1.0
  Na  Na2  1  0.500000  0.000000  0.500000  1.0
  Nb  Nb3  1  0.000000  0.500000  0.500000  1.0
  Nb  Nb4  1  0.000000  0.000000  0.000000  1.0
  O  O5  1  0.000000  0.698901  0.801099  1.0
  O  O6  1  0.000000  0.198901  0.698901  1.0
  O  O7  1  0.000000  0.801099  0.301099  1.0
  O  O8  1  0.000000  0.301099  0.198901  1.0
  O  O9  1  0.500000  0.000000  0.000000  1.0
  O  O10  1  0.500000  0.500000  0.500000  1.0
