# generated using pymatgen
data_Fe3Sn
_symmetry_space_group_name_H-M   'P 1'
_cell_length_a   4.31041770
_cell_length_b   5.48711864
_cell_length_c   5.48711864
_cell_angle_alpha   120.01276143
_cell_angle_beta   90.00000000
_cell_angle_gamma   90.00000000
_symmetry_Int_Tables_number   1
_chemical_formula_structural   Fe3Sn
_chemical_formula_sum   'Fe6 Sn2'
_cell_volume   112.37839586
_cell_formula_units_Z   2
loop_
 _symmetry_equiv_pos_site_id
 _symmetry_equiv_pos_as_xyz
  1  'x, y, z'
loop_
 _atom_site_type_symbol
 _atom_site_label
 _atom_site_symmetry_multiplicity
 _atom_site_fract_x
 _atom_site_fract_y
 _atom_site_fract_z
 _atom_site_occupancy
  Fe  Fe1  1  0.750000  0.150747  0.301503  1.0
  Fe  Fe2  1  0.750000  0.150652  0.849348  1.0
  Fe  Fe3  1  0.750000  0.698497  0.849253  1.0
  Fe  Fe4  1  0.250000  0.849253  0.698497  1.0
  Fe  Fe5  1  0.250000  0.849348  0.150652  1.0
  Fe  Fe6  1  0.250000  0.301503  0.150747  1.0
  Sn  Sn7  1  0.750000  0.666655  0.333345  1.0
  Sn  Sn8  1  0.250000  0.333345  0.666655  1.0
