# generated using pymatgen
data_Li2Sn2Au
_symmetry_space_group_name_H-M   'P 1'
_cell_length_a   4.63487438
_cell_length_b   4.63487438
_cell_length_c   10.47604333
_cell_angle_alpha   102.78028952
_cell_angle_beta   102.78028952
_cell_angle_gamma   90.00000000
_symmetry_Int_Tables_number   1
_chemical_formula_structural   Li2Sn2Au
_chemical_formula_sum   'Li4 Sn4 Au2'
_cell_volume   213.75077002
_cell_formula_units_Z   2
loop_
 _symmetry_equiv_pos_site_id
 _symmetry_equiv_pos_as_xyz
  1  'x, y, z'
loop_
 _atom_site_type_symbol
 _atom_site_label
 _atom_site_symmetry_multiplicity
 _atom_site_fract_x
 _atom_site_fract_y
 _atom_site_fract_z
 _atom_site_occupancy
  Li  Li1  1  0.199400  0.449400  0.398800  1.0
  Li  Li2  1  0.449400  0.199400  0.898800  1.0
  Li  Li3  1  0.800600  0.550600  0.601200  1.0
  Li  Li4  1  0.550600  0.800600  0.101200  1.0
  Sn  Sn5  1  0.702222  0.952222  0.404444  1.0
  Sn  Sn6  1  0.952222  0.702222  0.904444  1.0
  Sn  Sn7  1  0.297778  0.047778  0.595556  1.0
  Sn  Sn8  1  0.047778  0.297778  0.095556  1.0
  Au  Au9  1  0.625000  0.375000  0.250000  1.0
  Au  Au10  1  0.375000  0.625000  0.750000  1.0
