# generated using pymatgen
data_InCuSe2
_symmetry_space_group_name_H-M   'P 1'
_cell_length_a   5.87872819
_cell_length_b   5.87872818
_cell_length_c   7.21839083
_cell_angle_alpha   114.02937128
_cell_angle_beta   114.02937130
_cell_angle_gamma   89.99999996
_symmetry_Int_Tables_number   1
_chemical_formula_structural   InCuSe2
_chemical_formula_sum   'In2 Cu2 Se4'
_cell_volume   203.94595182
_cell_formula_units_Z   2
loop_
 _symmetry_equiv_pos_site_id
 _symmetry_equiv_pos_as_xyz
  1  'x, y, z'
loop_
 _atom_site_type_symbol
 _atom_site_label
 _atom_site_symmetry_multiplicity
 _atom_site_fract_x
 _atom_site_fract_y
 _atom_site_fract_z
 _atom_site_occupancy
  In  In1  1  0.500000  0.500000  0.000000  1.0
  In  In2  1  0.750000  0.250000  0.500000  1.0
  Cu  Cu3  1  0.000000  0.000000  0.000000  1.0
  Cu  Cu4  1  0.250000  0.750000  0.500000  1.0
  Se  Se5  1  0.344355  0.375000  0.250000  1.0
  Se  Se6  1  0.905645  0.875000  0.250000  1.0
  Se  Se7  1  0.125000  0.655645  0.750000  1.0
  Se  Se8  1  0.625000  0.094355  0.750000  1.0
