# generated using pymatgen
data_HfSe3
_symmetry_space_group_name_H-M   'P 1'
_cell_length_a   3.74951781
_cell_length_b   5.44819551
_cell_length_c   10.19817683
_cell_angle_alpha   83.81959583
_cell_angle_beta   90.00000000
_cell_angle_gamma   90.00000000
_symmetry_Int_Tables_number   1
_chemical_formula_structural   HfSe3
_chemical_formula_sum   'Hf2 Se6'
_cell_volume   207.11859485
_cell_formula_units_Z   2
loop_
 _symmetry_equiv_pos_site_id
 _symmetry_equiv_pos_as_xyz
  1  'x, y, z'
loop_
 _atom_site_type_symbol
 _atom_site_label
 _atom_site_symmetry_multiplicity
 _atom_site_fract_x
 _atom_site_fract_y
 _atom_site_fract_z
 _atom_site_occupancy
  Hf  Hf1  1  0.250000  0.720590  0.646032  1.0
  Hf  Hf2  1  0.750000  0.279410  0.353968  1.0
  Se  Se3  1  0.250000  0.092428  0.194621  1.0
  Se  Se4  1  0.750000  0.907572  0.805379  1.0
  Se  Se5  1  0.750000  0.759897  0.450570  1.0
  Se  Se6  1  0.250000  0.240103  0.549430  1.0
  Se  Se7  1  0.750000  0.469040  0.805244  1.0
  Se  Se8  1  0.250000  0.530960  0.194756  1.0
