# generated using pymatgen
data_Ti2AlN
_symmetry_space_group_name_H-M   'P 1'
_cell_length_a   3.00085142
_cell_length_b   3.00085142
_cell_length_c   13.65120900
_cell_angle_alpha   90.00000000
_cell_angle_beta   90.00000000
_cell_angle_gamma   119.98834394
_symmetry_Int_Tables_number   1
_chemical_formula_structural   Ti2AlN
_chemical_formula_sum   'Ti4 Al2 N2'
_cell_volume   106.47354916
_cell_formula_units_Z   2
loop_
 _symmetry_equiv_pos_site_id
 _symmetry_equiv_pos_as_xyz
  1  'x, y, z'
loop_
 _atom_site_type_symbol
 _atom_site_label
 _atom_site_symmetry_multiplicity
 _atom_site_fract_x
 _atom_site_fract_y
 _atom_site_fract_z
 _atom_site_occupancy
  Ti  Ti1  1  0.666661  0.333339  0.585358  1.0
  Ti  Ti2  1  0.333339  0.666661  0.414642  1.0
  Ti  Ti3  1  0.333339  0.666661  0.085358  1.0
  Ti  Ti4  1  0.666661  0.333339  0.914642  1.0
  Al  Al5  1  0.666677  0.333323  0.250000  1.0
  Al  Al6  1  0.333323  0.666677  0.750000  1.0
  N  N7  1  0.000000  0.000000  0.500000  1.0
  N  N8  1  0.000000  0.000000  0.000000  1.0
