# generated using pymatgen
data_SmTe3
_symmetry_space_group_name_H-M   'P 1'
_cell_length_a   4.37178180
_cell_length_b   4.37260170
_cell_length_c   13.81087043
_cell_angle_alpha   90.00000000
_cell_angle_beta   99.10668178
_cell_angle_gamma   90.00000000
_symmetry_Int_Tables_number   1
_chemical_formula_structural   SmTe3
_chemical_formula_sum   'Sm2 Te6'
_cell_volume   260.68169012
_cell_formula_units_Z   2
loop_
 _symmetry_equiv_pos_site_id
 _symmetry_equiv_pos_as_xyz
  1  'x, y, z'
loop_
 _atom_site_type_symbol
 _atom_site_label
 _atom_site_symmetry_multiplicity
 _atom_site_fract_x
 _atom_site_fract_y
 _atom_site_fract_z
 _atom_site_occupancy
  Sm  Sm1  1  0.827609  0.250000  0.655219  1.0
  Sm  Sm2  1  0.172391  0.750000  0.344781  1.0
  Te  Te3  1  0.707478  0.250000  0.414956  1.0
  Te  Te4  1  0.292522  0.750000  0.585044  1.0
  Te  Te5  1  0.079045  0.250000  0.158091  1.0
  Te  Te6  1  0.920955  0.750000  0.841909  1.0
  Te  Te7  1  0.579019  0.750000  0.158038  1.0
  Te  Te8  1  0.420981  0.250000  0.841962  1.0
