# generated using pymatgen
data_Fe3N
_symmetry_space_group_name_H-M   'P 1'
_cell_length_a   4.65876930
_cell_length_b   4.65876931
_cell_length_c   4.32222375
_cell_angle_alpha   90.00000000
_cell_angle_beta   90.00000000
_cell_angle_gamma   119.99999996
_symmetry_Int_Tables_number   1
_chemical_formula_structural   Fe3N
_chemical_formula_sum   'Fe6 N2'
_cell_volume   81.24194048
_cell_formula_units_Z   2
loop_
 _symmetry_equiv_pos_site_id
 _symmetry_equiv_pos_as_xyz
  1  'x, y, z'
loop_
 _atom_site_type_symbol
 _atom_site_label
 _atom_site_symmetry_multiplicity
 _atom_site_fract_x
 _atom_site_fract_y
 _atom_site_fract_z
 _atom_site_occupancy
  Fe  Fe1  1  0.339683  0.006675  0.250417  1.0
  Fe  Fe2  1  0.666993  0.006675  0.749583  1.0
  Fe  Fe3  1  0.339683  0.333007  0.749583  1.0
  Fe  Fe4  1  0.993325  0.660317  0.749583  1.0
  Fe  Fe5  1  0.666993  0.660317  0.250417  1.0
  Fe  Fe6  1  0.993325  0.333007  0.250417  1.0
  N  N7  1  0.333333  0.666667  0.500000  1.0
  N  N8  1  0.000000  0.000000  0.000000  1.0
