# generated using pymatgen
data_ZnCu2SnS4
_symmetry_space_group_name_H-M   'P 1'
_cell_length_a   5.45192112
_cell_length_b   5.45192112
_cell_length_c   6.69580641
_cell_angle_alpha   114.02370702
_cell_angle_beta   114.02370702
_cell_angle_gamma   90.00000000
_symmetry_Int_Tables_number   1
_chemical_formula_structural   ZnCu2SnS4
_chemical_formula_sum   'Zn1 Cu2 Sn1 S4'
_cell_volume   162.72629069
_cell_formula_units_Z   1
loop_
 _symmetry_equiv_pos_site_id
 _symmetry_equiv_pos_as_xyz
  1  'x, y, z'
loop_
 _atom_site_type_symbol
 _atom_site_label
 _atom_site_symmetry_multiplicity
 _atom_site_fract_x
 _atom_site_fract_y
 _atom_site_fract_z
 _atom_site_occupancy
  Zn  Zn1  1  0.000000  0.000000  0.000000  1.0
  Cu  Cu2  1  0.750000  0.250000  0.500000  1.0
  Cu  Cu3  1  0.250000  0.750000  0.500000  1.0
  Sn  Sn4  1  0.500000  0.500000  0.000000  1.0
  S  S5  1  0.891221  0.891221  0.266939  1.0
  S  S6  1  0.375719  0.375719  0.266939  1.0
  S  S7  1  0.108779  0.624281  0.733061  1.0
  S  S8  1  0.624281  0.108779  0.733061  1.0
