# generated using pymatgen
data_Fe3Ge
_symmetry_space_group_name_H-M   'P 1'
_cell_length_a   4.21831345
_cell_length_b   5.14885499
_cell_length_c   5.14885499
_cell_angle_alpha   120.04265467
_cell_angle_beta   90.00000000
_cell_angle_gamma   90.00000000
_symmetry_Int_Tables_number   1
_chemical_formula_structural   Fe3Ge
_chemical_formula_sum   'Fe6 Ge2'
_cell_volume   96.80637844
_cell_formula_units_Z   2
loop_
 _symmetry_equiv_pos_site_id
 _symmetry_equiv_pos_as_xyz
  1  'x, y, z'
loop_
 _atom_site_type_symbol
 _atom_site_label
 _atom_site_symmetry_multiplicity
 _atom_site_fract_x
 _atom_site_fract_y
 _atom_site_fract_z
 _atom_site_occupancy
  Fe  Fe1  1  0.750000  0.162532  0.325098  1.0
  Fe  Fe2  1  0.750000  0.162551  0.837449  1.0
  Fe  Fe3  1  0.750000  0.674902  0.837468  1.0
  Fe  Fe4  1  0.250000  0.837468  0.674902  1.0
  Fe  Fe5  1  0.250000  0.837449  0.162551  1.0
  Fe  Fe6  1  0.250000  0.325098  0.162532  1.0
  Ge  Ge7  1  0.750000  0.666687  0.333313  1.0
  Ge  Ge8  1  0.250000  0.333313  0.666687  1.0
