# generated using pymatgen
data_SnO2
_symmetry_space_group_name_H-M   'P 1'
_cell_length_a   3.24322132
_cell_length_b   4.82933499
_cell_length_c   4.83533691
_cell_angle_alpha   90.00000000
_cell_angle_beta   90.00000000
_cell_angle_gamma   90.00000000
_symmetry_Int_Tables_number   1
_chemical_formula_structural   SnO2
_chemical_formula_sum   'Sn2 O4'
_cell_volume   75.73395853
_cell_formula_units_Z   2
loop_
 _symmetry_equiv_pos_site_id
 _symmetry_equiv_pos_as_xyz
  1  'x, y, z'
loop_
 _atom_site_type_symbol
 _atom_site_label
 _atom_site_symmetry_multiplicity
 _atom_site_fract_x
 _atom_site_fract_y
 _atom_site_fract_z
 _atom_site_occupancy
  Sn  Sn1  1  0.500000  0.500000  0.500000  1.0
  Sn  Sn2  1  0.000000  0.000000  0.000000  1.0
  O  O3  1  0.500000  0.193647  0.806751  1.0
  O  O4  1  0.500000  0.806353  0.193249  1.0
  O  O5  1  0.000000  0.306353  0.306751  1.0
  O  O6  1  0.000000  0.693647  0.693249  1.0
