# generated using pymatgen
data_CeSi2
_symmetry_space_group_name_H-M   'P 1'
_cell_length_a   4.09438354
_cell_length_b   4.09438354
_cell_length_c   7.64475092
_cell_angle_alpha   105.53283169
_cell_angle_beta   105.53283169
_cell_angle_gamma   90.00000000
_symmetry_Int_Tables_number   1
_chemical_formula_structural   CeSi2
_chemical_formula_sum   'Ce2 Si4'
_cell_volume   118.61058787
_cell_formula_units_Z   2
loop_
 _symmetry_equiv_pos_site_id
 _symmetry_equiv_pos_as_xyz
  1  'x, y, z'
loop_
 _atom_site_type_symbol
 _atom_site_label
 _atom_site_symmetry_multiplicity
 _atom_site_fract_x
 _atom_site_fract_y
 _atom_site_fract_z
 _atom_site_occupancy
  Ce  Ce1  1  0.250000  0.750000  0.500000  1.0
  Ce  Ce2  1  0.000000  0.000000  0.000000  1.0
  Si  Si3  1  0.666496  0.166496  0.332992  1.0
  Si  Si4  1  0.583504  0.583504  0.167008  1.0
  Si  Si5  1  0.833504  0.333504  0.667008  1.0
  Si  Si6  1  0.416496  0.416496  0.832992  1.0
