# generated using pymatgen
data_PrGe2
_symmetry_space_group_name_H-M   'P 1'
_cell_length_a   4.19518079
_cell_length_b   4.19518079
_cell_length_c   8.65372603
_cell_angle_alpha   104.02773691
_cell_angle_beta   104.02773692
_cell_angle_gamma   90.00000002
_symmetry_Int_Tables_number   1
_chemical_formula_structural   PrGe2
_chemical_formula_sum   'Pr2 Ge4'
_cell_volume   143.07377938
_cell_formula_units_Z   2
loop_
 _symmetry_equiv_pos_site_id
 _symmetry_equiv_pos_as_xyz
  1  'x, y, z'
loop_
 _atom_site_type_symbol
 _atom_site_label
 _atom_site_symmetry_multiplicity
 _atom_site_fract_x
 _atom_site_fract_y
 _atom_site_fract_z
 _atom_site_occupancy
  Pr  Pr1  1  0.875000  0.625000  0.250000  1.0
  Pr  Pr2  1  0.125000  0.375000  0.750000  1.0
  Ge  Ge3  1  0.704834  0.954834  0.909668  1.0
  Ge  Ge4  1  0.454834  0.204834  0.409668  1.0
  Ge  Ge5  1  0.545166  0.795166  0.590332  1.0
  Ge  Ge6  1  0.295166  0.045166  0.090332  1.0
