# generated using pymatgen
data_ReGe2
_symmetry_space_group_name_H-M   'P 1'
_cell_length_a   3.20370995
_cell_length_b   4.85885939
_cell_length_c   6.96665496
_cell_angle_alpha   77.66462369
_cell_angle_beta   76.70694805
_cell_angle_gamma   70.75081835
_symmetry_Int_Tables_number   1
_chemical_formula_structural   ReGe2
_chemical_formula_sum   'Re2 Ge4'
_cell_volume   98.51212055
_cell_formula_units_Z   2
loop_
 _symmetry_equiv_pos_site_id
 _symmetry_equiv_pos_as_xyz
  1  'x, y, z'
loop_
 _atom_site_type_symbol
 _atom_site_label
 _atom_site_symmetry_multiplicity
 _atom_site_fract_x
 _atom_site_fract_y
 _atom_site_fract_z
 _atom_site_occupancy
  Re  Re1  1  0.850037  0.110310  0.189617  1.0
  Re  Re2  1  0.149963  0.889690  0.810383  1.0
  Ge  Ge3  1  0.852159  0.757740  0.537941  1.0
  Ge  Ge4  1  0.147841  0.242260  0.462059  1.0
  Ge  Ge5  1  0.599872  0.686224  0.114033  1.0
  Ge  Ge6  1  0.400128  0.313776  0.885967  1.0
