# generated using pymatgen
data_SmCo5
_symmetry_space_group_name_H-M   'P 1'
_cell_length_a   3.96287001
_cell_length_b   4.97334170
_cell_length_c   4.96798095
_cell_angle_alpha   120.03570217
_cell_angle_beta   90.00000000
_cell_angle_gamma   90.00000000
_symmetry_Int_Tables_number   1
_chemical_formula_structural   SmCo5
_chemical_formula_sum   'Sm1 Co5'
_cell_volume   84.76417233
_cell_formula_units_Z   1
loop_
 _symmetry_equiv_pos_site_id
 _symmetry_equiv_pos_as_xyz
  1  'x, y, z'
loop_
 _atom_site_type_symbol
 _atom_site_label
 _atom_site_symmetry_multiplicity
 _atom_site_fract_x
 _atom_site_fract_y
 _atom_site_fract_z
 _atom_site_occupancy
  Sm  Sm1  1  0.000000  0.999962  0.000000  1.0
  Co  Co2  1  0.000000  0.333272  0.666629  1.0
  Co  Co3  1  0.000000  0.666643  0.333371  1.0
  Co  Co4  1  0.500000  0.500041  0.000000  1.0
  Co  Co5  1  0.500000  0.500008  0.500033  1.0
  Co  Co6  1  0.500000  0.999975  0.499967  1.0
