# generated using pymatgen
data_Li5Tl2
_symmetry_space_group_name_H-M   'P 1'
_cell_length_a   7.36152043
_cell_length_b   7.36152043
_cell_length_c   7.36152043
_cell_angle_alpha   37.57632493
_cell_angle_beta   37.57632488
_cell_angle_gamma   37.57632491
_symmetry_Int_Tables_number   1
_chemical_formula_structural   Li5Tl2
_chemical_formula_sum   'Li5 Tl2'
_cell_volume   133.06709419
_cell_formula_units_Z   1
loop_
 _symmetry_equiv_pos_site_id
 _symmetry_equiv_pos_as_xyz
  1  'x, y, z'
loop_
 _atom_site_type_symbol
 _atom_site_label
 _atom_site_symmetry_multiplicity
 _atom_site_fract_x
 _atom_site_fract_y
 _atom_site_fract_z
 _atom_site_occupancy
  Li  Li1  1  0.500000  0.500000  0.500000  1.0
  Li  Li2  1  0.645397  0.645397  0.645397  1.0
  Li  Li3  1  0.213791  0.213791  0.213791  1.0
  Li  Li4  1  0.786209  0.786209  0.786209  1.0
  Li  Li5  1  0.354603  0.354603  0.354603  1.0
  Tl  Tl6  1  0.924542  0.924542  0.924542  1.0
  Tl  Tl7  1  0.075458  0.075458  0.075458  1.0
