# generated using pymatgen
data_CoCO3
_symmetry_space_group_name_H-M   'P 1'
_cell_length_a   4.70976063
_cell_length_b   4.70976063
_cell_length_c   5.71483545
_cell_angle_alpha   65.66541821
_cell_angle_beta   65.66541821
_cell_angle_gamma   59.99999795
_symmetry_Int_Tables_number   1
_chemical_formula_structural   CoCO3
_chemical_formula_sum   'Co2 C2 O6'
_cell_volume   96.55868860
_cell_formula_units_Z   2
loop_
 _symmetry_equiv_pos_site_id
 _symmetry_equiv_pos_as_xyz
  1  'x, y, z'
loop_
 _atom_site_type_symbol
 _atom_site_label
 _atom_site_symmetry_multiplicity
 _atom_site_fract_x
 _atom_site_fract_y
 _atom_site_fract_z
 _atom_site_occupancy
  Co  Co1  1  0.500000  0.500000  0.500000  1.0
  Co  Co2  1  0.000000  0.000000  0.000000  1.0
  C  C3  1  0.750000  0.750000  0.750000  1.0
  C  C4  1  0.250000  0.250000  0.250000  1.0
  O  O5  1  0.473768  0.026232  0.750000  1.0
  O  O6  1  0.026232  0.750000  0.750000  1.0
  O  O7  1  0.750000  0.473768  0.750000  1.0
  O  O8  1  0.973768  0.250000  0.250000  1.0
  O  O9  1  0.250000  0.526232  0.250000  1.0
  O  O10  1  0.526232  0.973768  0.250000  1.0
