# generated using pymatgen
data_ZnCu2GeSe4
_symmetry_space_group_name_H-M   'P 1'
_cell_length_a   5.65282799
_cell_length_b   5.65282800
_cell_length_c   6.91722978
_cell_angle_alpha   114.11722701
_cell_angle_beta   114.11722702
_cell_angle_gamma   89.99999998
_symmetry_Int_Tables_number   1
_chemical_formula_structural   ZnCu2GeSe4
_chemical_formula_sum   'Zn1 Cu2 Ge1 Se4'
_cell_volume   180.39656650
_cell_formula_units_Z   1
loop_
 _symmetry_equiv_pos_site_id
 _symmetry_equiv_pos_as_xyz
  1  'x, y, z'
loop_
 _atom_site_type_symbol
 _atom_site_label
 _atom_site_symmetry_multiplicity
 _atom_site_fract_x
 _atom_site_fract_y
 _atom_site_fract_z
 _atom_site_occupancy
  Zn  Zn1  1  0.000000  0.000000  0.000000  1.0
  Cu  Cu2  1  0.750000  0.250000  0.500000  1.0
  Cu  Cu3  1  0.250000  0.750000  0.500000  1.0
  Ge  Ge4  1  0.500000  0.500000  0.000000  1.0
  Se  Se5  1  0.384486  0.384486  0.260127  1.0
  Se  Se6  1  0.124359  0.615514  0.739873  1.0
  Se  Se7  1  0.615514  0.124359  0.739873  1.0
  Se  Se8  1  0.875641  0.875641  0.260127  1.0
