# generated using pymatgen
data_BaCoO3
_symmetry_space_group_name_H-M   'P 1'
_cell_length_a   5.72132528
_cell_length_b   5.72341753
_cell_length_c   4.78193962
_cell_angle_alpha   90.04500753
_cell_angle_beta   89.93208496
_cell_angle_gamma   120.01589684
_symmetry_Int_Tables_number   1
_chemical_formula_structural   BaCoO3
_chemical_formula_sum   'Ba2 Co2 O6'
_cell_volume   135.58663499
_cell_formula_units_Z   2
loop_
 _symmetry_equiv_pos_site_id
 _symmetry_equiv_pos_as_xyz
  1  'x, y, z'
loop_
 _atom_site_type_symbol
 _atom_site_label
 _atom_site_symmetry_multiplicity
 _atom_site_fract_x
 _atom_site_fract_y
 _atom_site_fract_z
 _atom_site_occupancy
  Ba  Ba1  1  0.666821  0.333321  0.999757  1.0
  Ba  Ba2  1  0.333180  0.666677  0.500245  1.0
  Co  Co3  1  0.000000  0.000000  0.250185  1.0
  Co  Co4  1  0.999999  0.000002  0.749837  1.0
  O  O5  1  0.704309  0.852029  0.998987  1.0
  O  O6  1  0.852224  0.147739  0.501623  1.0
  O  O7  1  0.147812  0.852226  0.998370  1.0
  O  O8  1  0.148025  0.295764  0.998657  1.0
  O  O9  1  0.852016  0.704314  0.501334  1.0
  O  O10  1  0.295612  0.147930  0.501003  1.0
