# generated using pymatgen
data_Cu3SbS4
_symmetry_space_group_name_H-M   'P 1'
_cell_length_a   5.41643346
_cell_length_b   5.41643346
_cell_length_c   6.62700707
_cell_angle_alpha   114.12091346
_cell_angle_beta   114.12091343
_cell_angle_gamma   89.99999998
_symmetry_Int_Tables_number   1
_chemical_formula_structural   Cu3SbS4
_chemical_formula_sum   'Cu3 Sb1 S4'
_cell_volume   158.66366701
_cell_formula_units_Z   1
loop_
 _symmetry_equiv_pos_site_id
 _symmetry_equiv_pos_as_xyz
  1  'x, y, z'
loop_
 _atom_site_type_symbol
 _atom_site_label
 _atom_site_symmetry_multiplicity
 _atom_site_fract_x
 _atom_site_fract_y
 _atom_site_fract_z
 _atom_site_occupancy
  Cu  Cu1  1  0.750000  0.250000  0.500000  1.0
  Cu  Cu2  1  0.250000  0.750000  0.500000  1.0
  Cu  Cu3  1  0.500000  0.500000  0.000000  1.0
  Sb  Sb4  1  0.000000  0.000000  0.000000  1.0
  S  S5  1  0.130890  0.130890  0.735372  1.0
  S  S6  1  0.395517  0.869110  0.264628  1.0
  S  S7  1  0.869110  0.395517  0.264628  1.0
  S  S8  1  0.604483  0.604483  0.735372  1.0
