# generated using pymatgen
data_Ti2GaN
_symmetry_space_group_name_H-M   'P 1'
_cell_length_a   3.01621656
_cell_length_b   3.01621656
_cell_length_c   13.31367882
_cell_angle_alpha   90.00000000
_cell_angle_beta   90.00000000
_cell_angle_gamma   119.99999686
_symmetry_Int_Tables_number   1
_chemical_formula_structural   Ti2GaN
_chemical_formula_sum   'Ti4 Ga2 N2'
_cell_volume   104.89475219
_cell_formula_units_Z   2
loop_
 _symmetry_equiv_pos_site_id
 _symmetry_equiv_pos_as_xyz
  1  'x, y, z'
loop_
 _atom_site_type_symbol
 _atom_site_label
 _atom_site_symmetry_multiplicity
 _atom_site_fract_x
 _atom_site_fract_y
 _atom_site_fract_z
 _atom_site_occupancy
  Ti  Ti1  1  0.666667  0.333333  0.413148  1.0
  Ti  Ti2  1  0.333333  0.666667  0.586852  1.0
  Ti  Ti3  1  0.333333  0.666667  0.913148  1.0
  Ti  Ti4  1  0.666667  0.333333  0.086852  1.0
  Ga  Ga5  1  0.666667  0.333333  0.750000  1.0
  Ga  Ga6  1  0.333333  0.666667  0.250000  1.0
  N  N7  1  0.000000  0.000000  0.000000  1.0
  N  N8  1  0.000000  0.000000  0.500000  1.0
