# generated using pymatgen
data_O2
_symmetry_space_group_name_H-M   'P 1'
_cell_length_a   4.38982799
_cell_length_b   5.36978940
_cell_length_c   5.36978940
_cell_angle_alpha   70.78662204
_cell_angle_beta   69.24482775
_cell_angle_gamma   69.24482780
_symmetry_Int_Tables_number   1
_chemical_formula_structural   O2
_chemical_formula_sum   O8
_cell_volume   107.64379016
_cell_formula_units_Z   4
loop_
 _symmetry_equiv_pos_site_id
 _symmetry_equiv_pos_as_xyz
  1  'x, y, z'
loop_
 _atom_site_type_symbol
 _atom_site_label
 _atom_site_symmetry_multiplicity
 _atom_site_fract_x
 _atom_site_fract_y
 _atom_site_fract_z
 _atom_site_occupancy
  O  O1  1  0.844609  0.273459  0.786089  1.0
  O  O2  1  0.155391  0.213911  0.726541  1.0
  O  O3  1  0.155391  0.726541  0.213911  1.0
  O  O4  1  0.844609  0.786089  0.273459  1.0
  O  O5  1  0.821680  0.207748  0.207748  1.0
  O  O6  1  0.178320  0.792252  0.792252  1.0
  O  O7  1  0.132641  0.148222  0.148222  1.0
  O  O8  1  0.867359  0.851778  0.851778  1.0
