# generated using pymatgen
data_RbFeSe2
_symmetry_space_group_name_H-M   'P 1'
_cell_length_a   5.63660598
_cell_length_b   7.17751879
_cell_length_c   7.17751879
_cell_angle_alpha   116.67070809
_cell_angle_beta   101.26429072
_cell_angle_gamma   101.26429072
_symmetry_Int_Tables_number   1
_chemical_formula_structural   RbFeSe2
_chemical_formula_sum   'Rb2 Fe2 Se4'
_cell_volume   240.85035038
_cell_formula_units_Z   2
loop_
 _symmetry_equiv_pos_site_id
 _symmetry_equiv_pos_as_xyz
  1  'x, y, z'
loop_
 _atom_site_type_symbol
 _atom_site_label
 _atom_site_symmetry_multiplicity
 _atom_site_fract_x
 _atom_site_fract_y
 _atom_site_fract_z
 _atom_site_occupancy
  Rb  Rb1  1  0.250000  0.140510  0.859490  1.0
  Rb  Rb2  1  0.750000  0.859490  0.140510  1.0
  Fe  Fe3  1  0.250000  0.501658  0.498342  1.0
  Fe  Fe4  1  0.750000  0.498342  0.501658  1.0
  Se  Se5  1  0.405281  0.204436  0.421315  1.0
  Se  Se6  1  0.094719  0.578685  0.795564  1.0
  Se  Se7  1  0.594719  0.795564  0.578685  1.0
  Se  Se8  1  0.905281  0.421315  0.204436  1.0
