# generated using pymatgen
data_Nb2AlC
_symmetry_space_group_name_H-M   'P 1'
_cell_length_a   3.13437757
_cell_length_b   3.13437757
_cell_length_c   13.89919352
_cell_angle_alpha   90.00000000
_cell_angle_beta   90.00000000
_cell_angle_gamma   119.99833600
_symmetry_Int_Tables_number   1
_chemical_formula_structural   Nb2AlC
_chemical_formula_sum   'Nb4 Al2 C2'
_cell_volume   118.25789297
_cell_formula_units_Z   2
loop_
 _symmetry_equiv_pos_site_id
 _symmetry_equiv_pos_as_xyz
  1  'x, y, z'
loop_
 _atom_site_type_symbol
 _atom_site_label
 _atom_site_symmetry_multiplicity
 _atom_site_fract_x
 _atom_site_fract_y
 _atom_site_fract_z
 _atom_site_occupancy
  Nb  Nb1  1  0.666672  0.333328  0.589095  1.0
  Nb  Nb2  1  0.333328  0.666672  0.410905  1.0
  Nb  Nb3  1  0.333328  0.666672  0.089095  1.0
  Nb  Nb4  1  0.666672  0.333328  0.910905  1.0
  Al  Al5  1  0.666679  0.333321  0.250000  1.0
  Al  Al6  1  0.333321  0.666679  0.750000  1.0
  C  C7  1  0.000000  0.000000  0.500000  1.0
  C  C8  1  0.000000  0.000000  0.000000  1.0
