# generated using pymatgen
data_ZrTe3
_symmetry_space_group_name_H-M   'P 1'
_cell_length_a   3.95003082
_cell_length_b   5.98696999
_cell_length_c   10.42713860
_cell_angle_alpha   83.14921235
_cell_angle_beta   90.00000000
_cell_angle_gamma   90.00000000
_symmetry_Int_Tables_number   1
_chemical_formula_structural   ZrTe3
_chemical_formula_sum   'Zr2 Te6'
_cell_volume   244.82783805
_cell_formula_units_Z   2
loop_
 _symmetry_equiv_pos_site_id
 _symmetry_equiv_pos_as_xyz
  1  'x, y, z'
loop_
 _atom_site_type_symbol
 _atom_site_label
 _atom_site_symmetry_multiplicity
 _atom_site_fract_x
 _atom_site_fract_y
 _atom_site_fract_z
 _atom_site_occupancy
  Zr  Zr1  1  0.750000  0.283436  0.337175  1.0
  Zr  Zr2  1  0.250000  0.716564  0.662825  1.0
  Te  Te3  1  0.750000  0.443418  0.825069  1.0
  Te  Te4  1  0.250000  0.556582  0.174931  1.0
  Te  Te5  1  0.750000  0.917888  0.827571  1.0
  Te  Te6  1  0.250000  0.082112  0.172429  1.0
  Te  Te7  1  0.750000  0.762165  0.444970  1.0
  Te  Te8  1  0.250000  0.237835  0.555030  1.0
