# generated using pymatgen
data_NbTe4
_symmetry_space_group_name_H-M   'P 1'
_cell_length_a   6.61329996
_cell_length_b   6.61329996
_cell_length_c   6.96716780
_cell_angle_alpha   90.00000000
_cell_angle_beta   90.00000000
_cell_angle_gamma   90.00000000
_symmetry_Int_Tables_number   1
_chemical_formula_structural   NbTe4
_chemical_formula_sum   'Nb2 Te8'
_cell_volume   304.71421408
_cell_formula_units_Z   2
loop_
 _symmetry_equiv_pos_site_id
 _symmetry_equiv_pos_as_xyz
  1  'x, y, z'
loop_
 _atom_site_type_symbol
 _atom_site_label
 _atom_site_symmetry_multiplicity
 _atom_site_fract_x
 _atom_site_fract_y
 _atom_site_fract_z
 _atom_site_occupancy
  Nb  Nb1  1  0.000000  0.000000  0.745260  1.0
  Nb  Nb2  1  0.000000  0.000000  0.245260  1.0
  Te  Te3  1  0.323160  0.141268  0.494935  1.0
  Te  Te4  1  0.676840  0.858732  0.494935  1.0
  Te  Te5  1  0.323160  0.858732  0.994935  1.0
  Te  Te6  1  0.676840  0.141268  0.994935  1.0
  Te  Te7  1  0.141268  0.676840  0.494935  1.0
  Te  Te8  1  0.858732  0.323160  0.494935  1.0
  Te  Te9  1  0.858732  0.676840  0.994935  1.0
  Te  Te10  1  0.141268  0.323160  0.994935  1.0
