# generated using pymatgen
data_Sc3CoC4
_symmetry_space_group_name_H-M   'P 1'
_cell_length_a   3.43123478
_cell_length_b   4.34384218
_cell_length_c   6.59942887
_cell_angle_alpha   109.21461392
_cell_angle_beta   105.06795719
_cell_angle_gamma   90.00000000
_symmetry_Int_Tables_number   1
_chemical_formula_structural   Sc3CoC4
_chemical_formula_sum   'Sc3 Co1 C4'
_cell_volume   89.29405520
_cell_formula_units_Z   1
loop_
 _symmetry_equiv_pos_site_id
 _symmetry_equiv_pos_as_xyz
  1  'x, y, z'
loop_
 _atom_site_type_symbol
 _atom_site_label
 _atom_site_symmetry_multiplicity
 _atom_site_fract_x
 _atom_site_fract_y
 _atom_site_fract_z
 _atom_site_occupancy
  Sc  Sc1  1  0.000000  0.500000  0.000000  1.0
  Sc  Sc2  1  0.187786  0.187786  0.375571  1.0
  Sc  Sc3  1  0.812214  0.812214  0.624429  1.0
  Co  Co4  1  0.500000  0.000000  0.000000  1.0
  C  C5  1  0.376274  0.209249  0.752549  1.0
  C  C6  1  0.623726  0.790751  0.247451  1.0
  C  C7  1  0.623726  0.456701  0.247451  1.0
  C  C8  1  0.376274  0.543299  0.752549  1.0
