# generated using pymatgen
data_V2CoO6
_symmetry_space_group_name_H-M   'P 1'
_cell_length_a   3.50967096
_cell_length_b   5.11595658
_cell_length_c   6.92870891
_cell_angle_alpha   106.63965384
_cell_angle_beta   89.99644833
_cell_angle_gamma   110.04428434
_symmetry_Int_Tables_number   1
_chemical_formula_structural   V2CoO6
_chemical_formula_sum   'V2 Co1 O6'
_cell_volume   111.31073771
_cell_formula_units_Z   1
loop_
 _symmetry_equiv_pos_site_id
 _symmetry_equiv_pos_as_xyz
  1  'x, y, z'
loop_
 _atom_site_type_symbol
 _atom_site_label
 _atom_site_symmetry_multiplicity
 _atom_site_fract_x
 _atom_site_fract_y
 _atom_site_fract_z
 _atom_site_occupancy
  V  V1  1  0.776194  0.577521  0.327831  1.0
  V  V2  1  0.198708  0.422489  0.672180  1.0
  Co  Co3  1  0.987436  0.999988  0.999992  1.0
  O  O4  1  0.687218  0.399429  0.571611  1.0
  O  O5  1  0.049545  0.123871  0.753217  1.0
  O  O6  1  0.925402  0.876134  0.246780  1.0
  O  O7  1  0.287725  0.600577  0.428395  1.0
  O  O8  1  0.347636  0.720777  0.881917  1.0
  O  O9  1  0.627135  0.279213  0.118077  1.0
