# generated using pymatgen
data_InNi3
_symmetry_space_group_name_H-M   'P 1'
_cell_length_a   4.21127472
_cell_length_b   5.35204467
_cell_length_c   5.35204467
_cell_angle_alpha   119.98823478
_cell_angle_beta   90.00000000
_cell_angle_gamma   90.00000000
_symmetry_Int_Tables_number   1
_chemical_formula_structural   InNi3
_chemical_formula_sum   'In2 Ni6'
_cell_volume   104.48047522
_cell_formula_units_Z   2
loop_
 _symmetry_equiv_pos_site_id
 _symmetry_equiv_pos_as_xyz
  1  'x, y, z'
loop_
 _atom_site_type_symbol
 _atom_site_label
 _atom_site_symmetry_multiplicity
 _atom_site_fract_x
 _atom_site_fract_y
 _atom_site_fract_z
 _atom_site_occupancy
  In  In1  1  0.750000  0.666661  0.333339  1.0
  In  In2  1  0.250000  0.333339  0.666661  1.0
  Ni  Ni3  1  0.750000  0.156369  0.312689  1.0
  Ni  Ni4  1  0.750000  0.156301  0.843699  1.0
  Ni  Ni5  1  0.750000  0.687311  0.843631  1.0
  Ni  Ni6  1  0.250000  0.843631  0.687311  1.0
  Ni  Ni7  1  0.250000  0.843699  0.156301  1.0
  Ni  Ni8  1  0.250000  0.312689  0.156369  1.0
