# generated using pymatgen
data_TiCoSi
_symmetry_space_group_name_H-M   'P 1'
_cell_length_a   3.71075058
_cell_length_b   6.02121045
_cell_length_c   6.02539304
_cell_angle_alpha   119.97704192
_cell_angle_beta   90.00000000
_cell_angle_gamma   90.00000000
_symmetry_Int_Tables_number   1
_chemical_formula_structural   TiCoSi
_chemical_formula_sum   'Ti3 Co3 Si3'
_cell_volume   116.61703827
_cell_formula_units_Z   3
loop_
 _symmetry_equiv_pos_site_id
 _symmetry_equiv_pos_as_xyz
  1  'x, y, z'
loop_
 _atom_site_type_symbol
 _atom_site_label
 _atom_site_symmetry_multiplicity
 _atom_site_fract_x
 _atom_site_fract_y
 _atom_site_fract_z
 _atom_site_occupancy
  Ti  Ti1  1  0.500000  0.435616  0.000000  1.0
  Ti  Ti2  1  0.500000  0.564322  0.564329  1.0
  Ti  Ti3  1  0.500000  0.999992  0.435671  1.0
  Co  Co4  1  0.000000  0.242825  0.242856  1.0
  Co  Co5  1  0.000000  0.999969  0.757144  1.0
  Co  Co6  1  0.000000  0.757132  0.000000  1.0
  Si  Si7  1  0.500000  0.000252  0.000000  1.0
  Si  Si8  1  0.000000  0.333230  0.666668  1.0
  Si  Si9  1  0.000000  0.666562  0.333332  1.0
