# generated using pymatgen
data_MnGeO3
_symmetry_space_group_name_H-M   'P 1'
_cell_length_a   5.10616935
_cell_length_b   5.10616955
_cell_length_c   5.67296804
_cell_angle_alpha   63.25349847
_cell_angle_beta   63.25349148
_cell_angle_gamma   59.99999923
_symmetry_Int_Tables_number   1
_chemical_formula_structural   MnGeO3
_chemical_formula_sum   'Mn2 Ge2 O6'
_cell_volume   109.44026734
_cell_formula_units_Z   2
loop_
 _symmetry_equiv_pos_site_id
 _symmetry_equiv_pos_as_xyz
  1  'x, y, z'
loop_
 _atom_site_type_symbol
 _atom_site_label
 _atom_site_symmetry_multiplicity
 _atom_site_fract_x
 _atom_site_fract_y
 _atom_site_fract_z
 _atom_site_occupancy
  Mn  Mn1  1  0.365676  0.365676  0.902971  1.0
  Mn  Mn2  1  0.634324  0.634324  0.097029  1.0
  Ge  Ge3  1  0.842830  0.842830  0.471510  1.0
  Ge  Ge4  1  0.157170  0.157170  0.528490  1.0
  O  O5  1  0.041589  0.439312  0.723210  1.0
  O  O6  1  0.439312  0.795889  0.723210  1.0
  O  O7  1  0.795889  0.041589  0.723210  1.0
  O  O8  1  0.958411  0.560688  0.276790  1.0
  O  O9  1  0.560688  0.204111  0.276790  1.0
  O  O10  1  0.204111  0.958411  0.276790  1.0
