# generated using pymatgen
data_TiCdO3
_symmetry_space_group_name_H-M   'P 1'
_cell_length_a   5.89364998
_cell_length_b   5.89364999
_cell_length_c   5.89364999
_cell_angle_alpha   53.51172306
_cell_angle_beta   53.51172307
_cell_angle_gamma   53.51172304
_symmetry_Int_Tables_number   1
_chemical_formula_structural   TiCdO3
_chemical_formula_sum   'Ti2 Cd2 O6'
_cell_volume   122.78027172
_cell_formula_units_Z   2
loop_
 _symmetry_equiv_pos_site_id
 _symmetry_equiv_pos_as_xyz
  1  'x, y, z'
loop_
 _atom_site_type_symbol
 _atom_site_label
 _atom_site_symmetry_multiplicity
 _atom_site_fract_x
 _atom_site_fract_y
 _atom_site_fract_z
 _atom_site_occupancy
  Ti  Ti1  1  0.850761  0.850761  0.850761  1.0
  Ti  Ti2  1  0.149239  0.149239  0.149239  1.0
  Cd  Cd3  1  0.636732  0.636732  0.636732  1.0
  Cd  Cd4  1  0.363268  0.363268  0.363268  1.0
  O  O5  1  0.805454  0.437088  0.036676  1.0
  O  O6  1  0.437088  0.036676  0.805454  1.0
  O  O7  1  0.036676  0.805454  0.437088  1.0
  O  O8  1  0.194546  0.562912  0.963324  1.0
  O  O9  1  0.963324  0.194546  0.562912  1.0
  O  O10  1  0.562912  0.963324  0.194546  1.0
