# generated using pymatgen
data_RbFeS2
_symmetry_space_group_name_H-M   'P 1'
_cell_length_a   5.44141399
_cell_length_b   6.89876076
_cell_length_c   6.89876076
_cell_angle_alpha   116.30911950
_cell_angle_beta   101.14635162
_cell_angle_gamma   101.14635160
_symmetry_Int_Tables_number   1
_chemical_formula_structural   RbFeS2
_chemical_formula_sum   'Rb2 Fe2 S4'
_cell_volume   216.00445021
_cell_formula_units_Z   2
loop_
 _symmetry_equiv_pos_site_id
 _symmetry_equiv_pos_as_xyz
  1  'x, y, z'
loop_
 _atom_site_type_symbol
 _atom_site_label
 _atom_site_symmetry_multiplicity
 _atom_site_fract_x
 _atom_site_fract_y
 _atom_site_fract_z
 _atom_site_occupancy
  Rb  Rb1  1  0.750000  0.645966  0.354034  1.0
  Rb  Rb2  1  0.250000  0.354034  0.645966  1.0
  Fe  Fe3  1  0.250000  0.997505  0.002495  1.0
  Fe  Fe4  1  0.750000  0.002495  0.997505  1.0
  S  S5  1  0.404799  0.912008  0.715252  1.0
  S  S6  1  0.095201  0.284748  0.087992  1.0
  S  S7  1  0.904799  0.715252  0.912008  1.0
  S  S8  1  0.595201  0.087992  0.284748  1.0
