# generated using pymatgen
data_Mg2TiN2
_symmetry_space_group_name_H-M   'P 1'
_cell_length_a   4.42107015
_cell_length_b   5.42928684
_cell_length_c   6.73075706
_cell_angle_alpha   60.09123034
_cell_angle_beta   70.82692003
_cell_angle_gamma   65.97406460
_symmetry_Int_Tables_number   1
_chemical_formula_structural   Mg2TiN2
_chemical_formula_sum   'Mg4 Ti2 N4'
_cell_volume   126.29550072
_cell_formula_units_Z   2
loop_
 _symmetry_equiv_pos_site_id
 _symmetry_equiv_pos_as_xyz
  1  'x, y, z'
loop_
 _atom_site_type_symbol
 _atom_site_label
 _atom_site_symmetry_multiplicity
 _atom_site_fract_x
 _atom_site_fract_y
 _atom_site_fract_z
 _atom_site_occupancy
  Mg  Mg1  1  0.667098  0.252402  0.413403  1.0
  Mg  Mg2  1  0.332902  0.747598  0.586597  1.0
  Mg  Mg3  1  0.007297  0.721487  0.263917  1.0
  Mg  Mg4  1  0.992703  0.278513  0.736083  1.0
  Ti  Ti5  1  0.344880  0.197782  0.112458  1.0
  Ti  Ti6  1  0.655120  0.802218  0.887542  1.0
  N  N7  1  0.177024  0.253121  0.392832  1.0
  N  N8  1  0.822976  0.746879  0.607168  1.0
  N  N9  1  0.500657  0.227964  0.770723  1.0
  N  N10  1  0.499343  0.772036  0.229277  1.0
