# generated using pymatgen
data_Nb4N5
_symmetry_space_group_name_H-M   'P 1'
_cell_length_a   4.32242748
_cell_length_b   5.35971869
_cell_length_c   5.35971868
_cell_angle_alpha   80.64235581
_cell_angle_beta   66.21957479
_cell_angle_gamma   66.21957473
_symmetry_Int_Tables_number   1
_chemical_formula_structural   Nb4N5
_chemical_formula_sum   'Nb4 N5'
_cell_volume   103.97918966
_cell_formula_units_Z   1
loop_
 _symmetry_equiv_pos_site_id
 _symmetry_equiv_pos_as_xyz
  1  'x, y, z'
loop_
 _atom_site_type_symbol
 _atom_site_label
 _atom_site_symmetry_multiplicity
 _atom_site_fract_x
 _atom_site_fract_y
 _atom_site_fract_z
 _atom_site_occupancy
  Nb  Nb1  1  0.604904  0.179397  0.610794  1.0
  Nb  Nb2  1  0.215699  0.389206  0.179397  1.0
  Nb  Nb3  1  0.784301  0.610794  0.820603  1.0
  Nb  Nb4  1  0.395096  0.820603  0.389206  1.0
  N  N5  1  0.500000  0.000000  0.000000  1.0
  N  N6  1  0.907716  0.786172  0.398395  1.0
  N  N7  1  0.306111  0.601605  0.786172  1.0
  N  N8  1  0.693889  0.398395  0.213828  1.0
  N  N9  1  0.092284  0.213828  0.601605  1.0
