# generated using pymatgen
data_Zr2Ga3
_symmetry_space_group_name_H-M   'P 1'
_cell_length_a   5.51056161
_cell_length_b   5.51056161
_cell_length_c   7.46169823
_cell_angle_alpha   100.82765201
_cell_angle_beta   100.82765201
_cell_angle_gamma   119.42346793
_symmetry_Int_Tables_number   1
_chemical_formula_structural   Zr2Ga3
_chemical_formula_sum   'Zr4 Ga6'
_cell_volume   183.15661954
_cell_formula_units_Z   2
loop_
 _symmetry_equiv_pos_site_id
 _symmetry_equiv_pos_as_xyz
  1  'x, y, z'
loop_
 _atom_site_type_symbol
 _atom_site_label
 _atom_site_symmetry_multiplicity
 _atom_site_fract_x
 _atom_site_fract_y
 _atom_site_fract_z
 _atom_site_occupancy
  Zr  Zr1  1  0.137368  0.998807  0.604583  1.0
  Zr  Zr2  1  0.394223  0.532785  0.395417  1.0
  Zr  Zr3  1  0.248807  0.887368  0.104583  1.0
  Zr  Zr4  1  0.782785  0.144223  0.895417  1.0
  Ga  Ga5  1  0.646681  0.146681  0.500000  1.0
  Ga  Ga6  1  0.396681  0.396681  0.000000  1.0
  Ga  Ga7  1  0.731217  0.590684  0.770174  1.0
  Ga  Ga8  1  0.820511  0.961043  0.229826  1.0
  Ga  Ga9  1  0.840684  0.481217  0.270174  1.0
  Ga  Ga10  1  0.211043  0.570511  0.729826  1.0
