# generated using pymatgen
data_BaZrO3
_symmetry_space_group_name_H-M   'P 1'
_cell_length_a   5.99657029
_cell_length_b   6.01680179
_cell_length_c   5.99657029
_cell_angle_alpha   119.88883162
_cell_angle_beta   90.00000000
_cell_angle_gamma   119.88883162
_symmetry_Int_Tables_number   1
_chemical_formula_structural   BaZrO3
_chemical_formula_sum   'Ba2 Zr2 O6'
_cell_volume   153.50041435
_cell_formula_units_Z   2
loop_
 _symmetry_equiv_pos_site_id
 _symmetry_equiv_pos_as_xyz
  1  'x, y, z'
loop_
 _atom_site_type_symbol
 _atom_site_label
 _atom_site_symmetry_multiplicity
 _atom_site_fract_x
 _atom_site_fract_y
 _atom_site_fract_z
 _atom_site_occupancy
  Ba  Ba1  1  0.750000  0.500000  0.250000  1.0
  Ba  Ba2  1  0.250000  0.500000  0.750000  1.0
  Zr  Zr3  1  0.500000  0.000000  0.500000  1.0
  Zr  Zr4  1  0.000000  0.000000  0.000000  1.0
  O  O5  1  0.250000  0.500000  0.250000  1.0
  O  O6  1  0.750000  0.500000  0.750000  1.0
  O  O7  1  0.227213  0.000000  0.272787  1.0
  O  O8  1  0.772787  0.000000  0.727213  1.0
  O  O9  1  0.272787  0.000000  0.772787  1.0
  O  O10  1  0.727213  0.000000  0.227213  1.0
