# generated using pymatgen
data_NbN
_symmetry_space_group_name_H-M   'P 1'
_cell_length_a   2.99072277
_cell_length_b   2.99072277
_cell_length_c   11.46140452
_cell_angle_alpha   90.00000000
_cell_angle_beta   90.00000000
_cell_angle_gamma   119.99884859
_symmetry_Int_Tables_number   1
_chemical_formula_structural   NbN
_chemical_formula_sum   'Nb4 N4'
_cell_volume   88.78218431
_cell_formula_units_Z   4
loop_
 _symmetry_equiv_pos_site_id
 _symmetry_equiv_pos_as_xyz
  1  'x, y, z'
loop_
 _atom_site_type_symbol
 _atom_site_label
 _atom_site_symmetry_multiplicity
 _atom_site_fract_x
 _atom_site_fract_y
 _atom_site_fract_z
 _atom_site_occupancy
  Nb  Nb1  1  0.666668  0.333332  0.622849  1.0
  Nb  Nb2  1  0.333332  0.666668  0.377151  1.0
  Nb  Nb3  1  0.333332  0.666668  0.122849  1.0
  Nb  Nb4  1  0.666668  0.333332  0.877151  1.0
  N  N5  1  0.000000  0.000000  0.500000  1.0
  N  N6  1  0.000000  0.000000  0.000000  1.0
  N  N7  1  0.666667  0.333333  0.250000  1.0
  N  N8  1  0.333333  0.666667  0.750000  1.0
