# generated using pymatgen
data_CeCoC2
_symmetry_space_group_name_H-M   'P 1'
_cell_length_a   3.73217027
_cell_length_b   3.73217015
_cell_length_c   7.39957551
_cell_angle_alpha   82.60388390
_cell_angle_beta   82.60388422
_cell_angle_gamma   89.99897183
_symmetry_Int_Tables_number   1
_chemical_formula_structural   CeCoC2
_chemical_formula_sum   'Ce2 Co2 C4'
_cell_volume   101.34706459
_cell_formula_units_Z   2
loop_
 _symmetry_equiv_pos_site_id
 _symmetry_equiv_pos_as_xyz
  1  'x, y, z'
loop_
 _atom_site_type_symbol
 _atom_site_label
 _atom_site_symmetry_multiplicity
 _atom_site_fract_x
 _atom_site_fract_y
 _atom_site_fract_z
 _atom_site_occupancy
  Ce  Ce1  1  0.936595  0.068529  0.000539  1.0
  Ce  Ce2  1  0.068529  0.936595  0.500539  1.0
  Co  Co3  1  0.624836  0.490208  0.305263  1.0
  Co  Co4  1  0.490208  0.624836  0.805263  1.0
  C  C5  1  0.556529  0.406044  0.571912  1.0
  C  C6  1  0.406044  0.556529  0.071912  1.0
  C  C7  1  0.508607  0.141653  0.725386  1.0
  C  C8  1  0.141653  0.508607  0.225386  1.0
