# generated using pymatgen
data_NaNO3
_symmetry_space_group_name_H-M   'P 1'
_cell_length_a   5.12796420
_cell_length_b   5.12796420
_cell_length_c   6.54322743
_cell_angle_alpha   66.93016508
_cell_angle_beta   66.93016508
_cell_angle_gamma   59.99999847
_symmetry_Int_Tables_number   1
_chemical_formula_structural   NaNO3
_chemical_formula_sum   'Na2 N2 O6'
_cell_volume   132.88302489
_cell_formula_units_Z   2
loop_
 _symmetry_equiv_pos_site_id
 _symmetry_equiv_pos_as_xyz
  1  'x, y, z'
loop_
 _atom_site_type_symbol
 _atom_site_label
 _atom_site_symmetry_multiplicity
 _atom_site_fract_x
 _atom_site_fract_y
 _atom_site_fract_z
 _atom_site_occupancy
  Na  Na1  1  0.500000  0.500000  0.500000  1.0
  Na  Na2  1  0.000000  0.000000  0.000000  1.0
  N  N3  1  0.750000  0.750000  0.750000  1.0
  N  N4  1  0.250000  0.250000  0.250000  1.0
  O  O5  1  0.502963  0.997037  0.750000  1.0
  O  O6  1  0.997037  0.750000  0.750000  1.0
  O  O7  1  0.750000  0.502963  0.750000  1.0
  O  O8  1  0.002963  0.250000  0.250000  1.0
  O  O9  1  0.250000  0.497037  0.250000  1.0
  O  O10  1  0.497037  0.002963  0.250000  1.0
