# generated using pymatgen
data_AlCr3B4
_symmetry_space_group_name_H-M   'P 1'
_cell_length_a   2.93882590
_cell_length_b   2.94286851
_cell_length_c   8.08096380
_cell_angle_alpha   90.00000000
_cell_angle_beta   90.00000000
_cell_angle_gamma   90.00000000
_symmetry_Int_Tables_number   1
_chemical_formula_structural   AlCr3B4
_chemical_formula_sum   'Al1 Cr3 B4'
_cell_volume   69.88884734
_cell_formula_units_Z   1
loop_
 _symmetry_equiv_pos_site_id
 _symmetry_equiv_pos_as_xyz
  1  'x, y, z'
loop_
 _atom_site_type_symbol
 _atom_site_label
 _atom_site_symmetry_multiplicity
 _atom_site_fract_x
 _atom_site_fract_y
 _atom_site_fract_z
 _atom_site_occupancy
  Al  Al1  1  0.500000  0.500000  0.500000  1.0
  Cr  Cr2  1  0.000000  0.000000  0.702086  1.0
  Cr  Cr3  1  0.000000  0.000000  0.297914  1.0
  Cr  Cr4  1  0.000000  0.500000  0.000000  1.0
  B  B5  1  0.500000  0.000000  0.107945  1.0
  B  B6  1  0.500000  0.500000  0.223062  1.0
  B  B7  1  0.500000  0.000000  0.892055  1.0
  B  B8  1  0.500000  0.500000  0.776938  1.0
