# generated using pymatgen
data_ZrSe3
_symmetry_space_group_name_H-M   'P 1'
_cell_length_a   3.78810199
_cell_length_b   5.48496728
_cell_length_c   10.15612631
_cell_angle_alpha   97.30281904
_cell_angle_beta   90.00000000
_cell_angle_gamma   90.00000000
_symmetry_Int_Tables_number   1
_chemical_formula_structural   ZrSe3
_chemical_formula_sum   'Zr2 Se6'
_cell_volume   209.30833218
_cell_formula_units_Z   2
loop_
 _symmetry_equiv_pos_site_id
 _symmetry_equiv_pos_as_xyz
  1  'x, y, z'
loop_
 _atom_site_type_symbol
 _atom_site_label
 _atom_site_symmetry_multiplicity
 _atom_site_fract_x
 _atom_site_fract_y
 _atom_site_fract_z
 _atom_site_occupancy
  Zr  Zr1  1  0.750000  0.284956  0.647974  1.0
  Zr  Zr2  1  0.250000  0.715044  0.352026  1.0
  Se  Se3  1  0.250000  0.107094  0.810951  1.0
  Se  Se4  1  0.750000  0.892906  0.189049  1.0
  Se  Se5  1  0.250000  0.540508  0.810335  1.0
  Se  Se6  1  0.750000  0.459492  0.189665  1.0
  Se  Se7  1  0.250000  0.237812  0.448839  1.0
  Se  Se8  1  0.750000  0.762188  0.551161  1.0
