# generated using pymatgen
data_NbNi3
_symmetry_space_group_name_H-M   'P 1'
_cell_length_a   4.25966651
_cell_length_b   4.58367371
_cell_length_c   5.11192189
_cell_angle_alpha   90.00000000
_cell_angle_beta   90.00000000
_cell_angle_gamma   90.00000000
_symmetry_Int_Tables_number   1
_chemical_formula_structural   NbNi3
_chemical_formula_sum   'Nb2 Ni6'
_cell_volume   99.80987308
_cell_formula_units_Z   2
loop_
 _symmetry_equiv_pos_site_id
 _symmetry_equiv_pos_as_xyz
  1  'x, y, z'
loop_
 _atom_site_type_symbol
 _atom_site_label
 _atom_site_symmetry_multiplicity
 _atom_site_fract_x
 _atom_site_fract_y
 _atom_site_fract_z
 _atom_site_occupancy
  Nb  Nb1  1  0.750000  0.349672  0.750000  1.0
  Nb  Nb2  1  0.250000  0.650328  0.250000  1.0
  Ni  Ni3  1  0.750000  0.840911  0.999108  1.0
  Ni  Ni4  1  0.750000  0.840911  0.500892  1.0
  Ni  Ni5  1  0.250000  0.159089  0.000892  1.0
  Ni  Ni6  1  0.250000  0.159089  0.499108  1.0
  Ni  Ni7  1  0.250000  0.681526  0.750000  1.0
  Ni  Ni8  1  0.750000  0.318474  0.250000  1.0
