# generated using pymatgen
data_U3Si
_symmetry_space_group_name_H-M   'P 1'
_cell_length_a   6.01281497
_cell_length_b   6.01281497
_cell_length_c   6.00078865
_cell_angle_alpha   120.06632098
_cell_angle_beta   120.06632098
_cell_angle_gamma   90.00000000
_symmetry_Int_Tables_number   1
_chemical_formula_structural   U3Si
_chemical_formula_sum   'U6 Si2'
_cell_volume   153.10027449
_cell_formula_units_Z   2
loop_
 _symmetry_equiv_pos_site_id
 _symmetry_equiv_pos_as_xyz
  1  'x, y, z'
loop_
 _atom_site_type_symbol
 _atom_site_label
 _atom_site_symmetry_multiplicity
 _atom_site_fract_x
 _atom_site_fract_y
 _atom_site_fract_z
 _atom_site_occupancy
  U  U1  1  0.250000  0.750000  0.500000  1.0
  U  U2  1  0.750000  0.250000  0.500000  1.0
  U  U3  1  0.774030  0.725970  0.000000  1.0
  U  U4  1  0.225970  0.274030  0.000000  1.0
  U  U5  1  0.725970  0.225970  0.000000  1.0
  U  U6  1  0.274030  0.774030  0.000000  1.0
  Si  Si7  1  0.750000  0.750000  0.500000  1.0
  Si  Si8  1  0.250000  0.250000  0.500000  1.0
