# generated using pymatgen
data_Mg2MnN2
_symmetry_space_group_name_H-M   'P 1'
_cell_length_a   4.34430645
_cell_length_b   5.45703118
_cell_length_c   6.33445230
_cell_angle_alpha   62.73649260
_cell_angle_beta   69.94567641
_cell_angle_gamma   66.54387813
_symmetry_Int_Tables_number   1
_chemical_formula_structural   Mg2MnN2
_chemical_formula_sum   'Mg4 Mn2 N4'
_cell_volume   120.05999438
_cell_formula_units_Z   2
loop_
 _symmetry_equiv_pos_site_id
 _symmetry_equiv_pos_as_xyz
  1  'x, y, z'
loop_
 _atom_site_type_symbol
 _atom_site_label
 _atom_site_symmetry_multiplicity
 _atom_site_fract_x
 _atom_site_fract_y
 _atom_site_fract_z
 _atom_site_occupancy
  Mg  Mg1  1  0.673063  0.251511  0.402365  1.0
  Mg  Mg2  1  0.326937  0.748489  0.597635  1.0
  Mg  Mg3  1  0.021930  0.705854  0.250285  1.0
  Mg  Mg4  1  0.978070  0.294146  0.749715  1.0
  Mn  Mn5  1  0.363492  0.150384  0.122632  1.0
  Mn  Mn6  1  0.636508  0.849616  0.877368  1.0
  N  N7  1  0.180505  0.249353  0.389638  1.0
  N  N8  1  0.819495  0.750647  0.610362  1.0
  N  N9  1  0.485292  0.250797  0.778618  1.0
  N  N10  1  0.514708  0.749203  0.221382  1.0
