# generated using pymatgen
data_TlPS3
_symmetry_space_group_name_H-M   'P 1'
_cell_length_a   7.12569352
_cell_length_b   7.15846128
_cell_length_c   7.15846128
_cell_angle_alpha   71.74555373
_cell_angle_beta   60.15130687
_cell_angle_gamma   60.15130683
_symmetry_Int_Tables_number   1
_chemical_formula_structural   TlPS3
_chemical_formula_sum   'Tl2 P2 S6'
_cell_volume   273.64942271
_cell_formula_units_Z   2
loop_
 _symmetry_equiv_pos_site_id
 _symmetry_equiv_pos_as_xyz
  1  'x, y, z'
loop_
 _atom_site_type_symbol
 _atom_site_label
 _atom_site_symmetry_multiplicity
 _atom_site_fract_x
 _atom_site_fract_y
 _atom_site_fract_z
 _atom_site_occupancy
  Tl  Tl1  1  0.000000  0.250146  0.749854  1.0
  Tl  Tl2  1  0.000000  0.749854  0.250146  1.0
  P  P3  1  0.662081  0.337919  0.337919  1.0
  P  P4  1  0.337919  0.662081  0.662081  1.0
  S  S5  1  0.540112  0.223258  0.223258  1.0
  S  S6  1  0.986628  0.776742  0.776742  1.0
  S  S7  1  0.500000  0.313749  0.686251  1.0
  S  S8  1  0.500000  0.686251  0.313749  1.0
  S  S9  1  0.459888  0.776742  0.776742  1.0
  S  S10  1  0.013372  0.223258  0.223258  1.0
