# generated using pymatgen
data_MnAsRh
_symmetry_space_group_name_H-M   'P 1'
_cell_length_a   3.66001819
_cell_length_b   6.50587173
_cell_length_c   6.50792968
_cell_angle_alpha   119.98954414
_cell_angle_beta   90.00000000
_cell_angle_gamma   90.00000000
_symmetry_Int_Tables_number   1
_chemical_formula_structural   MnAsRh
_chemical_formula_sum   'Mn3 As3 Rh3'
_cell_volume   134.21713721
_cell_formula_units_Z   3
loop_
 _symmetry_equiv_pos_site_id
 _symmetry_equiv_pos_as_xyz
  1  'x, y, z'
loop_
 _atom_site_type_symbol
 _atom_site_label
 _atom_site_symmetry_multiplicity
 _atom_site_fract_x
 _atom_site_fract_y
 _atom_site_fract_z
 _atom_site_occupancy
  Mn  Mn1  1  0.500000  0.595190  0.000000  1.0
  Mn  Mn2  1  0.500000  0.404766  0.404746  1.0
  Mn  Mn3  1  0.500000  0.000020  0.595254  1.0
  As  As4  1  0.500000  0.999869  0.000000  1.0
  As  As5  1  0.000000  0.333323  0.666669  1.0
  As  As6  1  0.000000  0.666654  0.333331  1.0
  Rh  Rh7  1  0.000000  0.263467  0.000000  1.0
  Rh  Rh8  1  0.000000  0.736563  0.736517  1.0
  Rh  Rh9  1  0.000000  0.000046  0.263483  1.0
