# generated using pymatgen
data_TlFeS2
_symmetry_space_group_name_H-M   'P 1'
_cell_length_a   5.09845389
_cell_length_b   6.50470507
_cell_length_c   6.84423718
_cell_angle_alpha   115.51122735
_cell_angle_beta   90.00000000
_cell_angle_gamma   113.07309097
_symmetry_Int_Tables_number   1
_chemical_formula_structural   TlFeS2
_chemical_formula_sum   'Tl2 Fe2 S4'
_cell_volume   184.52917681
_cell_formula_units_Z   2
loop_
 _symmetry_equiv_pos_site_id
 _symmetry_equiv_pos_as_xyz
  1  'x, y, z'
loop_
 _atom_site_type_symbol
 _atom_site_label
 _atom_site_symmetry_multiplicity
 _atom_site_fract_x
 _atom_site_fract_y
 _atom_site_fract_z
 _atom_site_occupancy
  Tl  Tl1  1  0.682636  0.365272  0.640795  1.0
  Tl  Tl2  1  0.317364  0.634728  0.359205  1.0
  Fe  Fe3  1  0.250557  0.000000  0.000000  1.0
  Fe  Fe4  1  0.749443  0.000000  0.000000  1.0
  S  S5  1  0.343384  0.686769  0.933524  1.0
  S  S6  1  0.656616  0.313231  0.066476  1.0
  S  S7  1  0.040322  0.080643  0.274793  1.0
  S  S8  1  0.959678  0.919357  0.725207  1.0
