# generated using pymatgen
data_K2PtSe2
_symmetry_space_group_name_H-M   'P 1'
_cell_length_a   3.81232401
_cell_length_b   6.48231138
_cell_length_c   6.48231137
_cell_angle_alpha   70.09813368
_cell_angle_beta   72.89906546
_cell_angle_gamma   72.89906552
_symmetry_Int_Tables_number   1
_chemical_formula_structural   K2PtSe2
_chemical_formula_sum   'K2 Pt1 Se2'
_cell_volume   140.57557476
_cell_formula_units_Z   1
loop_
 _symmetry_equiv_pos_site_id
 _symmetry_equiv_pos_as_xyz
  1  'x, y, z'
loop_
 _atom_site_type_symbol
 _atom_site_label
 _atom_site_symmetry_multiplicity
 _atom_site_fract_x
 _atom_site_fract_y
 _atom_site_fract_z
 _atom_site_occupancy
  K  K1  1  0.200592  0.299408  0.299408  1.0
  K  K2  1  0.799408  0.700592  0.700592  1.0
  Pt  Pt3  1  0.000000  0.000000  0.000000  1.0
  Se  Se4  1  0.500000  0.780315  0.219685  1.0
  Se  Se5  1  0.500000  0.219685  0.780315  1.0
