# generated using pymatgen
data_TiO2
_symmetry_space_group_name_H-M   'P 1'
_cell_length_a   3.82734875
_cell_length_b   3.82734875
_cell_length_c   5.47203924
_cell_angle_alpha   109.89335806
_cell_angle_beta   109.89335806
_cell_angle_gamma   90.01315593
_symmetry_Int_Tables_number   1
_chemical_formula_structural   TiO2
_chemical_formula_sum   'Ti2 O4'
_cell_volume   70.26401012
_cell_formula_units_Z   2
loop_
 _symmetry_equiv_pos_site_id
 _symmetry_equiv_pos_as_xyz
  1  'x, y, z'
loop_
 _atom_site_type_symbol
 _atom_site_label
 _atom_site_symmetry_multiplicity
 _atom_site_fract_x
 _atom_site_fract_y
 _atom_site_fract_z
 _atom_site_occupancy
  Ti  Ti1  1  0.365890  0.134110  0.250000  1.0
  Ti  Ti2  1  0.634110  0.865890  0.750000  1.0
  O  O3  1  0.588755  0.331221  0.667149  1.0
  O  O4  1  0.411245  0.668779  0.332851  1.0
  O  O5  1  0.168779  0.911245  0.832851  1.0
  O  O6  1  0.831221  0.088755  0.167149  1.0
