# generated using pymatgen
data_ReO3
_symmetry_space_group_name_H-M   'P 1'
_cell_length_a   5.36596250
_cell_length_b   5.36596250
_cell_length_c   5.36596232
_cell_angle_alpha   59.80271443
_cell_angle_beta   59.80271443
_cell_angle_gamma   59.80270934
_symmetry_Int_Tables_number   1
_chemical_formula_structural   ReO3
_chemical_formula_sum   'Re2 O6'
_cell_volume   108.76233551
_cell_formula_units_Z   2
loop_
 _symmetry_equiv_pos_site_id
 _symmetry_equiv_pos_as_xyz
  1  'x, y, z'
loop_
 _atom_site_type_symbol
 _atom_site_label
 _atom_site_symmetry_multiplicity
 _atom_site_fract_x
 _atom_site_fract_y
 _atom_site_fract_z
 _atom_site_occupancy
  Re  Re1  1  0.997062  0.997062  0.997062  1.0
  Re  Re2  1  0.497062  0.497062  0.497062  1.0
  O  O3  1  0.247361  0.773934  0.719912  1.0
  O  O4  1  0.273934  0.747361  0.219912  1.0
  O  O5  1  0.219912  0.273934  0.747361  1.0
  O  O6  1  0.773934  0.719912  0.247361  1.0
  O  O7  1  0.719912  0.247361  0.773934  1.0
  O  O8  1  0.747361  0.219912  0.273934  1.0
