# generated using pymatgen
data_Lu2NiSn6
_symmetry_space_group_name_H-M   'P 1'
_cell_length_a   4.36671818
_cell_length_b   4.41815213
_cell_length_c   11.34564096
_cell_angle_alpha   90.00000000
_cell_angle_beta   101.09523704
_cell_angle_gamma   90.00000000
_symmetry_Int_Tables_number   1
_chemical_formula_structural   Lu2NiSn6
_chemical_formula_sum   'Lu2 Ni1 Sn6'
_cell_volume   214.79813173
_cell_formula_units_Z   1
loop_
 _symmetry_equiv_pos_site_id
 _symmetry_equiv_pos_as_xyz
  1  'x, y, z'
loop_
 _atom_site_type_symbol
 _atom_site_label
 _atom_site_symmetry_multiplicity
 _atom_site_fract_x
 _atom_site_fract_y
 _atom_site_fract_z
 _atom_site_occupancy
  Lu  Lu1  1  0.178919  0.000000  0.357837  1.0
  Lu  Lu2  1  0.821081  0.000000  0.642163  1.0
  Ni  Ni3  1  0.500000  0.500000  0.000000  1.0
  Sn  Sn4  1  0.429446  0.000000  0.858892  1.0
  Sn  Sn5  1  0.570554  0.000000  0.141108  1.0
  Sn  Sn6  1  0.071589  0.500000  0.143178  1.0
  Sn  Sn7  1  0.928411  0.500000  0.856822  1.0
  Sn  Sn8  1  0.703246  0.500000  0.406491  1.0
  Sn  Sn9  1  0.296754  0.500000  0.593509  1.0
