# generated using pymatgen
data_NdCrGe3
_symmetry_space_group_name_H-M   'P 1'
_cell_length_a   5.75008508
_cell_length_b   6.16496501
_cell_length_c   6.16496501
_cell_angle_alpha   119.99318977
_cell_angle_beta   90.00000000
_cell_angle_gamma   90.00000000
_symmetry_Int_Tables_number   1
_chemical_formula_structural   NdCrGe3
_chemical_formula_sum   'Nd2 Cr2 Ge6'
_cell_volume   189.27616745
_cell_formula_units_Z   2
loop_
 _symmetry_equiv_pos_site_id
 _symmetry_equiv_pos_as_xyz
  1  'x, y, z'
loop_
 _atom_site_type_symbol
 _atom_site_label
 _atom_site_symmetry_multiplicity
 _atom_site_fract_x
 _atom_site_fract_y
 _atom_site_fract_z
 _atom_site_occupancy
  Nd  Nd1  1  0.250000  0.666664  0.333336  1.0
  Nd  Nd2  1  0.750000  0.333336  0.666664  1.0
  Cr  Cr3  1  0.500000  0.000000  0.000000  1.0
  Cr  Cr4  1  0.000000  0.000000  0.000000  1.0
  Ge  Ge5  1  0.750000  0.807617  0.615274  1.0
  Ge  Ge6  1  0.750000  0.807640  0.192360  1.0
  Ge  Ge7  1  0.750000  0.384726  0.192383  1.0
  Ge  Ge8  1  0.250000  0.192383  0.384726  1.0
  Ge  Ge9  1  0.250000  0.192360  0.807640  1.0
  Ge  Ge10  1  0.250000  0.615274  0.807617  1.0
