# generated using pymatgen
data_CdP4
_symmetry_space_group_name_H-M   'P 1'
_cell_length_a   5.20350800
_cell_length_b   5.33201870
_cell_length_c   7.70939459
_cell_angle_alpha   99.12163321
_cell_angle_beta   90.00000000
_cell_angle_gamma   90.00000000
_symmetry_Int_Tables_number   1
_chemical_formula_structural   CdP4
_chemical_formula_sum   'Cd2 P8'
_cell_volume   211.19375120
_cell_formula_units_Z   2
loop_
 _symmetry_equiv_pos_site_id
 _symmetry_equiv_pos_as_xyz
  1  'x, y, z'
loop_
 _atom_site_type_symbol
 _atom_site_label
 _atom_site_symmetry_multiplicity
 _atom_site_fract_x
 _atom_site_fract_y
 _atom_site_fract_z
 _atom_site_occupancy
  Cd  Cd1  1  0.500000  0.000000  0.500000  1.0
  Cd  Cd2  1  0.000000  0.000000  0.000000  1.0
  P  P3  1  0.601287  0.600614  0.899368  1.0
  P  P4  1  0.101287  0.399386  0.600632  1.0
  P  P5  1  0.287276  0.737064  0.747925  1.0
  P  P6  1  0.787276  0.262936  0.752075  1.0
  P  P7  1  0.712724  0.262936  0.252075  1.0
  P  P8  1  0.212724  0.737064  0.247925  1.0
  P  P9  1  0.898713  0.600614  0.399368  1.0
  P  P10  1  0.398713  0.399386  0.100632  1.0
