# generated using pymatgen
data_Ga2O3
_symmetry_space_group_name_H-M   'P 1'
_cell_length_a   3.08296874
_cell_length_b   5.87615337
_cell_length_c   6.41420528
_cell_angle_alpha   103.27512312
_cell_angle_beta   103.90563528
_cell_angle_gamma   90.00000005
_symmetry_Int_Tables_number   1
_chemical_formula_structural   Ga2O3
_chemical_formula_sum   'Ga4 O6'
_cell_volume   109.59278736
_cell_formula_units_Z   2
loop_
 _symmetry_equiv_pos_site_id
 _symmetry_equiv_pos_as_xyz
  1  'x, y, z'
loop_
 _atom_site_type_symbol
 _atom_site_label
 _atom_site_symmetry_multiplicity
 _atom_site_fract_x
 _atom_site_fract_y
 _atom_site_fract_z
 _atom_site_occupancy
  Ga  Ga1  1  0.658410  0.314082  0.316820  1.0
  Ga  Ga2  1  0.341590  0.685918  0.683180  1.0
  Ga  Ga3  1  0.089878  0.794761  0.179756  1.0
  Ga  Ga4  1  0.910122  0.205239  0.820244  1.0
  O  O5  1  0.495897  0.256491  0.991795  1.0
  O  O6  1  0.504103  0.743509  0.008205  1.0
  O  O7  1  0.173598  0.564294  0.347196  1.0
  O  O8  1  0.826402  0.435706  0.652804  1.0
  O  O9  1  0.836497  0.891047  0.672994  1.0
  O  O10  1  0.163503  0.108953  0.327006  1.0
