# generated using pymatgen
data_Ti2InN
_symmetry_space_group_name_H-M   'P 1'
_cell_length_a   3.11195501
_cell_length_b   3.11195501
_cell_length_c   13.95661957
_cell_angle_alpha   90.00000000
_cell_angle_beta   90.00000000
_cell_angle_gamma   119.99999301
_symmetry_Int_Tables_number   1
_chemical_formula_structural   Ti2InN
_chemical_formula_sum   'Ti4 In2 N2'
_cell_volume   117.05164523
_cell_formula_units_Z   2
loop_
 _symmetry_equiv_pos_site_id
 _symmetry_equiv_pos_as_xyz
  1  'x, y, z'
loop_
 _atom_site_type_symbol
 _atom_site_label
 _atom_site_symmetry_multiplicity
 _atom_site_fract_x
 _atom_site_fract_y
 _atom_site_fract_z
 _atom_site_occupancy
  Ti  Ti1  1  0.666667  0.333333  0.422325  1.0
  Ti  Ti2  1  0.333333  0.666667  0.577675  1.0
  Ti  Ti3  1  0.333333  0.666667  0.922325  1.0
  Ti  Ti4  1  0.666667  0.333333  0.077675  1.0
  In  In5  1  0.666667  0.333333  0.750000  1.0
  In  In6  1  0.333333  0.666667  0.250000  1.0
  N  N7  1  0.000000  0.000000  0.000000  1.0
  N  N8  1  0.000000  0.000000  0.500000  1.0
