# generated using pymatgen
data_Mn3Sn
_symmetry_space_group_name_H-M   'P 1'
_cell_length_a   4.50261695
_cell_length_b   5.59166321
_cell_length_c   5.59166321
_cell_angle_alpha   120.01402312
_cell_angle_beta   90.00000000
_cell_angle_gamma   90.00000000
_symmetry_Int_Tables_number   1
_chemical_formula_structural   Mn3Sn
_chemical_formula_sum   'Mn6 Sn2'
_cell_volume   121.90352361
_cell_formula_units_Z   2
loop_
 _symmetry_equiv_pos_site_id
 _symmetry_equiv_pos_as_xyz
  1  'x, y, z'
loop_
 _atom_site_type_symbol
 _atom_site_label
 _atom_site_symmetry_multiplicity
 _atom_site_fract_x
 _atom_site_fract_y
 _atom_site_fract_z
 _atom_site_occupancy
  Mn  Mn1  1  0.750000  0.838091  0.676189  1.0
  Mn  Mn2  1  0.750000  0.838104  0.161896  1.0
  Mn  Mn3  1  0.750000  0.323811  0.161909  1.0
  Mn  Mn4  1  0.250000  0.161909  0.323811  1.0
  Mn  Mn5  1  0.250000  0.161896  0.838104  1.0
  Mn  Mn6  1  0.250000  0.676189  0.838091  1.0
  Sn  Sn7  1  0.250000  0.666686  0.333314  1.0
  Sn  Sn8  1  0.750000  0.333314  0.666686  1.0
