# generated using pymatgen
data_Li2ZrO3
_symmetry_space_group_name_H-M   'P 1'
_cell_length_a   5.32329214
_cell_length_b   5.32329214
_cell_length_c   5.46143636
_cell_angle_alpha   101.12032496
_cell_angle_beta   101.12032493
_cell_angle_gamma   118.40412750
_symmetry_Int_Tables_number   1
_chemical_formula_structural   Li2ZrO3
_chemical_formula_sum   'Li4 Zr2 O6'
_cell_volume   126.10426763
_cell_formula_units_Z   2
loop_
 _symmetry_equiv_pos_site_id
 _symmetry_equiv_pos_as_xyz
  1  'x, y, z'
loop_
 _atom_site_type_symbol
 _atom_site_label
 _atom_site_symmetry_multiplicity
 _atom_site_fract_x
 _atom_site_fract_y
 _atom_site_fract_z
 _atom_site_occupancy
  Li  Li1  1  0.741728  0.258272  0.250000  1.0
  Li  Li2  1  0.258272  0.741728  0.750000  1.0
  Li  Li3  1  0.424052  0.575948  0.250000  1.0
  Li  Li4  1  0.575948  0.424052  0.750000  1.0
  Zr  Zr5  1  0.090947  0.909053  0.250000  1.0
  Zr  Zr6  1  0.909053  0.090947  0.750000  1.0
  O  O7  1  0.000000  0.500000  0.000000  1.0
  O  O8  1  0.693646  0.845375  0.987215  1.0
  O  O9  1  0.845375  0.693646  0.487215  1.0
  O  O10  1  0.306354  0.154625  0.012785  1.0
  O  O11  1  0.154625  0.306354  0.512785  1.0
  O  O12  1  0.500000  0.000000  0.500000  1.0
