# generated using pymatgen
data_K2Te2Pt
_symmetry_space_group_name_H-M   'P 1'
_cell_length_a   4.03152757
_cell_length_b   6.88943981
_cell_length_c   6.88943981
_cell_angle_alpha   70.69906678
_cell_angle_beta   72.98707207
_cell_angle_gamma   72.98707206
_symmetry_Int_Tables_number   1
_chemical_formula_structural   K2Te2Pt
_chemical_formula_sum   'K2 Te2 Pt1'
_cell_volume   168.57912719
_cell_formula_units_Z   1
loop_
 _symmetry_equiv_pos_site_id
 _symmetry_equiv_pos_as_xyz
  1  'x, y, z'
loop_
 _atom_site_type_symbol
 _atom_site_label
 _atom_site_symmetry_multiplicity
 _atom_site_fract_x
 _atom_site_fract_y
 _atom_site_fract_z
 _atom_site_occupancy
  K  K1  1  0.206921  0.293079  0.293079  1.0
  K  K2  1  0.793079  0.706921  0.706921  1.0
  Te  Te3  1  0.500000  0.779653  0.220347  1.0
  Te  Te4  1  0.500000  0.220347  0.779653  1.0
  Pt  Pt5  1  0.000000  0.000000  0.000000  1.0
