# generated using pymatgen
data_Na3PaF8
_symmetry_space_group_name_H-M   'P 1'
_cell_length_a   5.52772524
_cell_length_b   5.52772524
_cell_length_c   6.75608721
_cell_angle_alpha   114.14782128
_cell_angle_beta   114.14782130
_cell_angle_gamma   90.00000006
_symmetry_Int_Tables_number   1
_chemical_formula_structural   Na3PaF8
_chemical_formula_sum   'Na3 Pa1 F8'
_cell_volume   168.38085313
_cell_formula_units_Z   1
loop_
 _symmetry_equiv_pos_site_id
 _symmetry_equiv_pos_as_xyz
  1  'x, y, z'
loop_
 _atom_site_type_symbol
 _atom_site_label
 _atom_site_symmetry_multiplicity
 _atom_site_fract_x
 _atom_site_fract_y
 _atom_site_fract_z
 _atom_site_occupancy
  Na  Na1  1  0.750000  0.250000  0.500000  1.0
  Na  Na2  1  0.250000  0.750000  0.500000  1.0
  Na  Na3  1  0.500000  0.500000  0.000000  1.0
  Pa  Pa4  1  0.000000  0.000000  0.000000  1.0
  F  F5  1  0.884175  0.884175  0.233056  1.0
  F  F6  1  0.651119  0.651119  0.766944  1.0
  F  F7  1  0.115825  0.115825  0.766944  1.0
  F  F8  1  0.651119  0.115825  0.766944  1.0
  F  F9  1  0.348881  0.348881  0.233056  1.0
  F  F10  1  0.884175  0.348881  0.233056  1.0
  F  F11  1  0.348881  0.884175  0.233056  1.0
  F  F12  1  0.115825  0.651119  0.766944  1.0
