# generated using pymatgen
data_BaWO4
_symmetry_space_group_name_H-M   'P 1'
_cell_length_a   5.74108779
_cell_length_b   5.73235263
_cell_length_c   7.62630495
_cell_angle_alpha   112.03200796
_cell_angle_beta   112.06316066
_cell_angle_gamma   90.11069415
_symmetry_Int_Tables_number   1
_chemical_formula_structural   BaWO4
_chemical_formula_sum   'Ba2 W2 O8'
_cell_volume   212.61483683
_cell_formula_units_Z   2
loop_
 _symmetry_equiv_pos_site_id
 _symmetry_equiv_pos_as_xyz
  1  'x, y, z'
loop_
 _atom_site_type_symbol
 _atom_site_label
 _atom_site_symmetry_multiplicity
 _atom_site_fract_x
 _atom_site_fract_y
 _atom_site_fract_z
 _atom_site_occupancy
  Ba  Ba1  1  0.625735  0.375732  0.251479  1.0
  Ba  Ba2  1  0.374265  0.624267  0.748521  1.0
  W  W3  1  0.122896  0.872865  0.245741  1.0
  W  W4  1  0.877105  0.127136  0.754262  1.0
  O  O5  1  0.722536  0.077220  0.910108  1.0
  O  O6  1  0.187551  0.332877  0.910091  1.0
  O  O7  1  0.812450  0.667124  0.089910  1.0
  O  O8  1  0.326878  0.720114  0.403384  1.0
  O  O9  1  0.673120  0.279887  0.596614  1.0
  O  O10  1  0.923477  0.816720  0.596615  1.0
  O  O11  1  0.076523  0.183278  0.403383  1.0
  O  O12  1  0.277464  0.922780  0.089893  1.0
