# generated using pymatgen
data_YNbO4
_symmetry_space_group_name_H-M   'P 1'
_cell_length_a   5.16017204
_cell_length_b   5.35072217
_cell_length_c   6.63018574
_cell_angle_alpha   112.17745127
_cell_angle_beta   111.23198993
_cell_angle_gamma   93.83628231
_symmetry_Int_Tables_number   1
_chemical_formula_structural   YNbO4
_chemical_formula_sum   'Y2 Nb2 O8'
_cell_volume   153.55477707
_cell_formula_units_Z   2
loop_
 _symmetry_equiv_pos_site_id
 _symmetry_equiv_pos_as_xyz
  1  'x, y, z'
loop_
 _atom_site_type_symbol
 _atom_site_label
 _atom_site_symmetry_multiplicity
 _atom_site_fract_x
 _atom_site_fract_y
 _atom_site_fract_z
 _atom_site_occupancy
  Y  Y1  1  0.378025  0.128025  0.756050  1.0
  Y  Y2  1  0.621975  0.871975  0.243950  1.0
  Nb  Nb3  1  0.858771  0.608771  0.717542  1.0
  Nb  Nb4  1  0.141229  0.391229  0.282458  1.0
  O  O5  1  0.418831  0.217433  0.434622  1.0
  O  O6  1  0.015790  0.717188  0.434622  1.0
  O  O7  1  0.581169  0.782567  0.565378  1.0
  O  O8  1  0.984210  0.282812  0.565378  1.0
  O  O9  1  0.789061  0.129423  0.079387  1.0
  O  O10  1  0.290326  0.449964  0.079387  1.0
  O  O11  1  0.210939  0.870577  0.920613  1.0
  O  O12  1  0.709674  0.550036  0.920613  1.0
