# generated using pymatgen
data_Sr3N2
_symmetry_space_group_name_H-M   'P 1'
_cell_length_a   10.69757410
_cell_length_b   10.69757410
_cell_length_c   10.69757410
_cell_angle_alpha   109.47121786
_cell_angle_beta   109.47122202
_cell_angle_gamma   109.47122202
_symmetry_Int_Tables_number   1
_chemical_formula_structural   Sr3N2
_chemical_formula_sum   'Sr24 N16'
_cell_volume   942.39727051
_cell_formula_units_Z   8
loop_
 _symmetry_equiv_pos_site_id
 _symmetry_equiv_pos_as_xyz
  1  'x, y, z'
loop_
 _atom_site_type_symbol
 _atom_site_label
 _atom_site_symmetry_multiplicity
 _atom_site_fract_x
 _atom_site_fract_y
 _atom_site_fract_z
 _atom_site_occupancy
  Sr  Sr1  1  0.772969  0.727970  0.733058  1.0
  Sr  Sr2  1  0.460089  0.733058  0.505088  1.0
  Sr  Sr3  1  0.039911  0.044999  0.772969  1.0
  Sr  Sr4  1  0.455001  0.494912  0.727970  1.0
  Sr  Sr5  1  0.539911  0.266942  0.494912  1.0
  Sr  Sr6  1  0.227970  0.455001  0.994912  1.0
  Sr  Sr7  1  0.494912  0.227970  0.955001  1.0
  Sr  Sr8  1  0.272030  0.766942  0.727031  1.0
  Sr  Sr9  1  0.955001  0.727031  0.460089  1.0
  Sr  Sr10  1  0.727970  0.233058  0.272969  1.0
  Sr  Sr11  1  0.766942  0.227031  0.772030  1.0
  Sr  Sr12  1  0.233058  0.772969  0.227970  1.0
  Sr  Sr13  1  0.727031  0.960089  0.455001  1.0
  Sr  Sr14  1  0.544999  0.505088  0.272030  1.0
  Sr  Sr15  1  0.960089  0.955001  0.227031  1.0
  Sr  Sr16  1  0.227031  0.272030  0.266942  1.0
  Sr  Sr17  1  0.272969  0.039911  0.544999  1.0
  Sr  Sr18  1  0.005088  0.460089  0.233058  1.0
  Sr  Sr19  1  0.266942  0.994912  0.039911  1.0
  Sr  Sr20  1  0.505088  0.772030  0.044999  1.0
  Sr  Sr21  1  0.772030  0.544999  0.005088  1.0
  Sr  Sr22  1  0.733058  0.005088  0.960089  1.0
  Sr  Sr23  1  0.994912  0.539911  0.766942  1.0
  Sr  Sr24  1  0.044999  0.272969  0.539911  1.0
  N  N25  1  0.294435  0.250000  0.044435  1.0
  N  N26  1  0.250000  0.044435  0.294435  1.0
  N  N27  1  0.044435  0.794435  0.750000  1.0
  N  N28  1  0.955565  0.205565  0.250000  1.0
  N  N29  1  0.205565  0.750000  0.455565  1.0
  N  N30  1  0.705565  0.750000  0.955565  1.0
  N  N31  1  0.794435  0.250000  0.544435  1.0
  N  N32  1  0.544435  0.294435  0.750000  1.0
  N  N33  1  0.250000  0.544435  0.794435  1.0
  N  N34  1  0.455565  0.705565  0.250000  1.0
  N  N35  1  0.500000  0.500000  0.500000  1.0
  N  N36  1  0.000000  0.500000  0.000000  1.0
  N  N37  1  0.750000  0.955565  0.705565  1.0
  N  N38  1  0.750000  0.455565  0.205565  1.0
  N  N39  1  0.500000  0.000000  0.000000  1.0
  N  N40  1  0.000000  0.000000  0.500000  1.0
