# generated using pymatgen
data_ZnWO4
_symmetry_space_group_name_H-M   'P 1'
_cell_length_a   4.75913001
_cell_length_b   5.01788352
_cell_length_c   5.85530159
_cell_angle_alpha   90.00000000
_cell_angle_beta   90.00000000
_cell_angle_gamma   91.81138877
_symmetry_Int_Tables_number   1
_chemical_formula_structural   ZnWO4
_chemical_formula_sum   'Zn2 W2 O8'
_cell_volume   139.75917928
_cell_formula_units_Z   2
loop_
 _symmetry_equiv_pos_site_id
 _symmetry_equiv_pos_as_xyz
  1  'x, y, z'
loop_
 _atom_site_type_symbol
 _atom_site_label
 _atom_site_symmetry_multiplicity
 _atom_site_fract_x
 _atom_site_fract_y
 _atom_site_fract_z
 _atom_site_occupancy
  Zn  Zn1  1  0.500000  0.250000  0.678000  1.0
  Zn  Zn2  1  0.500000  0.750000  0.322000  1.0
  W  W3  1  0.000000  0.250000  0.174383  1.0
  W  W4  1  0.000000  0.750000  0.825617  1.0
  O  O5  1  0.785049  0.565357  0.106505  1.0
  O  O6  1  0.214951  0.934643  0.106505  1.0
  O  O7  1  0.214951  0.434643  0.893495  1.0
  O  O8  1  0.785049  0.065357  0.893495  1.0
  O  O9  1  0.742158  0.094936  0.370401  1.0
  O  O10  1  0.257842  0.405064  0.370401  1.0
  O  O11  1  0.257842  0.905064  0.629599  1.0
  O  O12  1  0.742158  0.594936  0.629599  1.0
