# generated using pymatgen
data_AsPd5
_symmetry_space_group_name_H-M   'P 1'
_cell_length_a   4.82103161
_cell_length_b   4.82103161
_cell_length_c   8.59702884
_cell_angle_alpha   95.03559615
_cell_angle_beta   95.03559619
_cell_angle_gamma   108.76288419
_symmetry_Int_Tables_number   1
_chemical_formula_structural   AsPd5
_chemical_formula_sum   'As2 Pd10'
_cell_volume   187.03534930
_cell_formula_units_Z   2
loop_
 _symmetry_equiv_pos_site_id
 _symmetry_equiv_pos_as_xyz
  1  'x, y, z'
loop_
 _atom_site_type_symbol
 _atom_site_label
 _atom_site_symmetry_multiplicity
 _atom_site_fract_x
 _atom_site_fract_y
 _atom_site_fract_z
 _atom_site_occupancy
  As  As1  1  0.250166  0.204524  0.712683  1.0
  As  As2  1  0.795476  0.749834  0.287317  1.0
  Pd  Pd3  1  0.226064  0.701226  0.825884  1.0
  Pd  Pd4  1  0.298774  0.773936  0.174116  1.0
  Pd  Pd5  1  0.746884  0.180368  0.825856  1.0
  Pd  Pd6  1  0.819632  0.253116  0.174144  1.0
  Pd  Pd7  1  0.668648  0.622972  0.647986  1.0
  Pd  Pd8  1  0.377028  0.331352  0.352014  1.0
  Pd  Pd9  1  0.766103  0.720427  0.993127  1.0
  Pd  Pd10  1  0.279573  0.233897  0.006873  1.0
  Pd  Pd11  1  0.838717  0.161283  0.500000  1.0
  Pd  Pd12  1  0.206935  0.793065  0.500000  1.0
