# generated using pymatgen
data_HfCr2
_symmetry_space_group_name_H-M   'P 1'
_cell_length_a   5.03907213
_cell_length_b   5.03907213
_cell_length_c   8.09511108
_cell_angle_alpha   90.00000000
_cell_angle_beta   90.00000000
_cell_angle_gamma   120.00717783
_symmetry_Int_Tables_number   1
_chemical_formula_structural   HfCr2
_chemical_formula_sum   'Hf4 Cr8'
_cell_volume   178.00130144
_cell_formula_units_Z   4
loop_
 _symmetry_equiv_pos_site_id
 _symmetry_equiv_pos_as_xyz
  1  'x, y, z'
loop_
 _atom_site_type_symbol
 _atom_site_label
 _atom_site_symmetry_multiplicity
 _atom_site_fract_x
 _atom_site_fract_y
 _atom_site_fract_z
 _atom_site_occupancy
  Hf  Hf1  1  0.666671  0.333329  0.560307  1.0
  Hf  Hf2  1  0.333329  0.666671  0.439693  1.0
  Hf  Hf3  1  0.333329  0.666671  0.060307  1.0
  Hf  Hf4  1  0.666671  0.333329  0.939693  1.0
  Cr  Cr5  1  0.000000  0.000000  0.500000  1.0
  Cr  Cr6  1  0.000000  0.000000  0.000000  1.0
  Cr  Cr7  1  0.168827  0.337671  0.750000  1.0
  Cr  Cr8  1  0.168861  0.831139  0.750000  1.0
  Cr  Cr9  1  0.662329  0.831173  0.750000  1.0
  Cr  Cr10  1  0.831173  0.662329  0.250000  1.0
  Cr  Cr11  1  0.831139  0.168861  0.250000  1.0
  Cr  Cr12  1  0.337671  0.168827  0.250000  1.0
