# generated using pymatgen
data_Sr3IrN3
_symmetry_space_group_name_H-M   'P 1'
_cell_length_a   7.74298482
_cell_length_b   7.74298482
_cell_length_c   5.33483360
_cell_angle_alpha   90.00000000
_cell_angle_beta   90.00000000
_cell_angle_gamma   120.00000152
_symmetry_Int_Tables_number   1
_chemical_formula_structural   Sr3IrN3
_chemical_formula_sum   'Sr6 Ir2 N6'
_cell_volume   276.99269675
_cell_formula_units_Z   2
loop_
 _symmetry_equiv_pos_site_id
 _symmetry_equiv_pos_as_xyz
  1  'x, y, z'
loop_
 _atom_site_type_symbol
 _atom_site_label
 _atom_site_symmetry_multiplicity
 _atom_site_fract_x
 _atom_site_fract_y
 _atom_site_fract_z
 _atom_site_occupancy
  Sr  Sr1  1  0.904285  0.637634  0.250000  1.0
  Sr  Sr2  1  0.733349  0.095715  0.250000  1.0
  Sr  Sr3  1  0.362366  0.266651  0.250000  1.0
  Sr  Sr4  1  0.095715  0.362366  0.750000  1.0
  Sr  Sr5  1  0.266651  0.904285  0.750000  1.0
  Sr  Sr6  1  0.637634  0.733349  0.750000  1.0
  Ir  Ir7  1  0.666667  0.333333  0.750000  1.0
  Ir  Ir8  1  0.333333  0.666667  0.250000  1.0
  N  N9  1  0.895141  0.594955  0.750000  1.0
  N  N10  1  0.699814  0.104859  0.750000  1.0
  N  N11  1  0.405045  0.300186  0.750000  1.0
  N  N12  1  0.104859  0.405045  0.250000  1.0
  N  N13  1  0.300186  0.895141  0.250000  1.0
  N  N14  1  0.594955  0.699814  0.250000  1.0
