# generated using pymatgen
data_LiRuN
_symmetry_space_group_name_H-M   'P 1'
_cell_length_a   2.95314101
_cell_length_b   4.74763109
_cell_length_c   9.72596880
_cell_angle_alpha   90.00000000
_cell_angle_beta   90.00000000
_cell_angle_gamma   90.00000000
_symmetry_Int_Tables_number   1
_chemical_formula_structural   LiRuN
_chemical_formula_sum   'Li4 Ru4 N4'
_cell_volume   136.36220709
_cell_formula_units_Z   4
loop_
 _symmetry_equiv_pos_site_id
 _symmetry_equiv_pos_as_xyz
  1  'x, y, z'
loop_
 _atom_site_type_symbol
 _atom_site_label
 _atom_site_symmetry_multiplicity
 _atom_site_fract_x
 _atom_site_fract_y
 _atom_site_fract_z
 _atom_site_occupancy
  Li  Li1  1  0.250000  0.728707  0.489313  1.0
  Li  Li2  1  0.250000  0.771293  0.989313  1.0
  Li  Li3  1  0.750000  0.271293  0.510687  1.0
  Li  Li4  1  0.750000  0.228707  0.010687  1.0
  Ru  Ru5  1  0.250000  0.461591  0.744341  1.0
  Ru  Ru6  1  0.250000  0.038409  0.244341  1.0
  Ru  Ru7  1  0.750000  0.538409  0.255659  1.0
  Ru  Ru8  1  0.750000  0.961591  0.755659  1.0
  N  N9  1  0.250000  0.138775  0.864535  1.0
  N  N10  1  0.250000  0.361225  0.364535  1.0
  N  N11  1  0.750000  0.861225  0.135465  1.0
  N  N12  1  0.750000  0.638775  0.635465  1.0
