# generated using pymatgen
data_KNO3
_symmetry_space_group_name_H-M   'P 1'
_cell_length_a   5.49905856
_cell_length_b   6.59908829
_cell_length_c   9.29708997
_cell_angle_alpha   90.00000000
_cell_angle_beta   90.00000000
_cell_angle_gamma   90.00000000
_symmetry_Int_Tables_number   1
_chemical_formula_structural   KNO3
_chemical_formula_sum   'K4 N4 O12'
_cell_volume   337.37998701
_cell_formula_units_Z   4
loop_
 _symmetry_equiv_pos_site_id
 _symmetry_equiv_pos_as_xyz
  1  'x, y, z'
loop_
 _atom_site_type_symbol
 _atom_site_label
 _atom_site_symmetry_multiplicity
 _atom_site_fract_x
 _atom_site_fract_y
 _atom_site_fract_z
 _atom_site_occupancy
  K  K1  1  0.250000  0.754580  0.083167  1.0
  K  K2  1  0.750000  0.245420  0.916833  1.0
  K  K3  1  0.250000  0.254580  0.416833  1.0
  K  K4  1  0.750000  0.745420  0.583167  1.0
  N  N5  1  0.250000  0.913701  0.745283  1.0
  N  N6  1  0.750000  0.086299  0.254717  1.0
  N  N7  1  0.250000  0.413701  0.754717  1.0
  N  N8  1  0.750000  0.586299  0.245283  1.0
  O  O9  1  0.450109  0.413380  0.686334  1.0
  O  O10  1  0.950109  0.586620  0.313666  1.0
  O  O11  1  0.049891  0.913380  0.813666  1.0
  O  O12  1  0.549891  0.086620  0.186334  1.0
  O  O13  1  0.750000  0.589893  0.108736  1.0
  O  O14  1  0.250000  0.410107  0.891264  1.0
  O  O15  1  0.750000  0.089893  0.391264  1.0
  O  O16  1  0.250000  0.910107  0.608736  1.0
  O  O17  1  0.549891  0.586620  0.313666  1.0
  O  O18  1  0.049891  0.413380  0.686334  1.0
  O  O19  1  0.950109  0.086620  0.186334  1.0
  O  O20  1  0.450109  0.913380  0.813666  1.0
