# generated using pymatgen
data_Al8Mo3
_symmetry_space_group_name_H-M   'P 1'
_cell_length_a   3.65423067
_cell_length_b   4.96465484
_cell_length_c   10.08558974
_cell_angle_alpha   99.98238813
_cell_angle_beta   90.00000000
_cell_angle_gamma   111.59384345
_symmetry_Int_Tables_number   1
_chemical_formula_structural   Al8Mo3
_chemical_formula_sum   'Al8 Mo3'
_cell_volume   167.14826958
_cell_formula_units_Z   1
loop_
 _symmetry_equiv_pos_site_id
 _symmetry_equiv_pos_as_xyz
  1  'x, y, z'
loop_
 _atom_site_type_symbol
 _atom_site_label
 _atom_site_symmetry_multiplicity
 _atom_site_fract_x
 _atom_site_fract_y
 _atom_site_fract_z
 _atom_site_occupancy
  Al  Al1  1  0.272318  0.544635  0.909820  1.0
  Al  Al2  1  0.727682  0.455365  0.090180  1.0
  Al  Al3  1  0.460163  0.920326  0.179147  1.0
  Al  Al4  1  0.539837  0.079674  0.820853  1.0
  Al  Al5  1  0.186540  0.373080  0.277881  1.0
  Al  Al6  1  0.813460  0.626920  0.722119  1.0
  Al  Al7  1  0.368195  0.736391  0.541703  1.0
  Al  Al8  1  0.631805  0.263609  0.458297  1.0
  Mo  Mo9  1  0.000000  0.000000  0.000000  1.0
  Mo  Mo10  1  0.094589  0.189178  0.659461  1.0
  Mo  Mo11  1  0.905411  0.810822  0.340539  1.0
