# generated using pymatgen
data_BNF8
_symmetry_space_group_name_H-M   'P 1'
_cell_length_a   5.28192174
_cell_length_b   9.99298779
_cell_length_c   9.99298779
_cell_angle_alpha   90.00000000
_cell_angle_beta   90.00000000
_cell_angle_gamma   90.00000000
_symmetry_Int_Tables_number   1
_chemical_formula_structural   BNF8
_chemical_formula_sum   'B4 N4 F32'
_cell_volume   527.45167483
_cell_formula_units_Z   4
loop_
 _symmetry_equiv_pos_site_id
 _symmetry_equiv_pos_as_xyz
  1  'x, y, z'
loop_
 _atom_site_type_symbol
 _atom_site_label
 _atom_site_symmetry_multiplicity
 _atom_site_fract_x
 _atom_site_fract_y
 _atom_site_fract_z
 _atom_site_occupancy
  B  B1  1  0.598886  0.244053  0.744053  1.0
  B  B2  1  0.401114  0.744053  0.755947  1.0
  B  B3  1  0.401114  0.255947  0.244053  1.0
  B  B4  1  0.598886  0.755947  0.255947  1.0
  N  N5  1  0.000000  0.000000  0.000000  1.0
  N  N6  1  0.000000  0.500000  0.500000  1.0
  N  N7  1  0.962778  0.000000  0.500000  1.0
  N  N8  1  0.037222  0.500000  0.000000  1.0
  F  F9  1  0.146748  0.942478  0.093062  1.0
  F  F10  1  0.853252  0.093062  0.057522  1.0
  F  F11  1  0.853252  0.906938  0.942478  1.0
  F  F12  1  0.146748  0.057522  0.906938  1.0
  F  F13  1  0.853252  0.442478  0.406938  1.0
  F  F14  1  0.853252  0.557522  0.593062  1.0
  F  F15  1  0.146748  0.406938  0.557522  1.0
  F  F16  1  0.146748  0.593062  0.442478  1.0
  F  F17  1  0.108519  0.077717  0.577717  1.0
  F  F18  1  0.891481  0.577717  0.922283  1.0
  F  F19  1  0.891481  0.422283  0.077717  1.0
  F  F20  1  0.108519  0.922283  0.422283  1.0
  F  F21  1  0.815962  0.077361  0.422639  1.0
  F  F22  1  0.184038  0.422639  0.922639  1.0
  F  F23  1  0.184038  0.577361  0.077361  1.0
  F  F24  1  0.815962  0.922639  0.577361  1.0
  F  F25  1  0.689131  0.278778  0.614838  1.0
  F  F26  1  0.310869  0.614838  0.721222  1.0
  F  F27  1  0.310869  0.385162  0.278778  1.0
  F  F28  1  0.689131  0.721222  0.385162  1.0
  F  F29  1  0.310869  0.778778  0.885162  1.0
  F  F30  1  0.310869  0.221222  0.114838  1.0
  F  F31  1  0.689131  0.885162  0.221222  1.0
  F  F32  1  0.689131  0.114838  0.778778  1.0
  F  F33  1  0.329289  0.242016  0.742016  1.0
  F  F34  1  0.670711  0.742016  0.757984  1.0
  F  F35  1  0.670711  0.257984  0.242016  1.0
  F  F36  1  0.329289  0.757984  0.257984  1.0
  F  F37  1  0.683606  0.338975  0.838975  1.0
  F  F38  1  0.316394  0.838975  0.661025  1.0
  F  F39  1  0.316394  0.161025  0.338975  1.0
  F  F40  1  0.683606  0.661025  0.161025  1.0
