# generated using pymatgen
data_SrN
_symmetry_space_group_name_H-M   'P 1'
_cell_length_a   3.79740786
_cell_length_b   6.76051300
_cell_length_c   7.10432482
_cell_angle_alpha   94.66247488
_cell_angle_beta   105.50130304
_cell_angle_gamma   90.00000000
_symmetry_Int_Tables_number   1
_chemical_formula_structural   SrN
_chemical_formula_sum   'Sr4 N4'
_cell_volume   175.12446488
_cell_formula_units_Z   4
loop_
 _symmetry_equiv_pos_site_id
 _symmetry_equiv_pos_as_xyz
  1  'x, y, z'
loop_
 _atom_site_type_symbol
 _atom_site_label
 _atom_site_symmetry_multiplicity
 _atom_site_fract_x
 _atom_site_fract_y
 _atom_site_fract_z
 _atom_site_occupancy
  Sr  Sr1  1  0.353603  0.093565  0.707207  1.0
  Sr  Sr2  1  0.646397  0.906435  0.292793  1.0
  Sr  Sr3  1  0.152940  0.389368  0.305881  1.0
  Sr  Sr4  1  0.847060  0.610632  0.694119  1.0
  N  N5  1  0.022559  0.082422  0.045118  1.0
  N  N6  1  0.977441  0.917578  0.954882  1.0
  N  N7  1  0.246488  0.749120  0.492975  1.0
  N  N8  1  0.753512  0.250880  0.507025  1.0
