# generated using pymatgen
data_MoO3
_symmetry_space_group_name_H-M   'P 1'
_cell_length_a   7.43680938
_cell_length_b   7.79575372
_cell_length_c   8.00829852
_cell_angle_alpha   90.00000000
_cell_angle_beta   90.23534969
_cell_angle_gamma   90.00000000
_symmetry_Int_Tables_number   1
_chemical_formula_structural   MoO3
_chemical_formula_sum   'Mo8 O24'
_cell_volume   464.28146940
_cell_formula_units_Z   8
loop_
 _symmetry_equiv_pos_site_id
 _symmetry_equiv_pos_as_xyz
  1  'x, y, z'
loop_
 _atom_site_type_symbol
 _atom_site_label
 _atom_site_symmetry_multiplicity
 _atom_site_fract_x
 _atom_site_fract_y
 _atom_site_fract_z
 _atom_site_occupancy
  Mo  Mo1  1  0.749244  0.464663  0.284063  1.0
  Mo  Mo2  1  0.750756  0.964663  0.215937  1.0
  Mo  Mo3  1  0.250756  0.535337  0.715937  1.0
  Mo  Mo4  1  0.249244  0.035337  0.784063  1.0
  Mo  Mo5  1  0.750576  0.467024  0.785393  1.0
  Mo  Mo6  1  0.749424  0.967024  0.714607  1.0
  Mo  Mo7  1  0.249424  0.532976  0.214607  1.0
  Mo  Mo8  1  0.250576  0.032976  0.285393  1.0
  O  O9  1  0.774475  0.994390  0.497876  1.0
  O  O10  1  0.725525  0.494390  0.002124  1.0
  O  O11  1  0.225525  0.005610  0.502124  1.0
  O  O12  1  0.274475  0.505610  0.997876  1.0
  O  O13  1  0.774444  0.475565  0.502205  1.0
  O  O14  1  0.725556  0.975565  0.997795  1.0
  O  O15  1  0.225556  0.524435  0.497795  1.0
  O  O16  1  0.274444  0.024435  0.002205  1.0
  O  O17  1  0.999094  0.027613  0.227595  1.0
  O  O18  1  0.500906  0.527613  0.272405  1.0
  O  O19  1  0.000906  0.972387  0.772405  1.0
  O  O20  1  0.499094  0.472387  0.727595  1.0
  O  O21  1  0.000874  0.472140  0.228612  1.0
  O  O22  1  0.499126  0.972140  0.271388  1.0
  O  O23  1  0.999126  0.527860  0.771388  1.0
  O  O24  1  0.500874  0.027860  0.728612  1.0
  O  O25  1  0.278188  0.258641  0.266904  1.0
  O  O26  1  0.221812  0.758641  0.233096  1.0
  O  O27  1  0.721812  0.741359  0.733096  1.0
  O  O28  1  0.778188  0.241359  0.766904  1.0
  O  O29  1  0.220062  0.258935  0.749011  1.0
  O  O30  1  0.279938  0.758935  0.750989  1.0
  O  O31  1  0.779938  0.741065  0.250989  1.0
  O  O32  1  0.720062  0.241065  0.249011  1.0
