# generated using pymatgen
data_UNi2B2C
_symmetry_space_group_name_H-M   'P 1'
_cell_length_a   3.48504945
_cell_length_b   3.48504945
_cell_length_c   5.82527132
_cell_angle_alpha   107.40547309
_cell_angle_beta   107.40547309
_cell_angle_gamma   90.00000000
_symmetry_Int_Tables_number   1
_chemical_formula_structural   UNi2B2C
_chemical_formula_sum   'U1 Ni2 B2 C1'
_cell_volume   64.10859339
_cell_formula_units_Z   1
loop_
 _symmetry_equiv_pos_site_id
 _symmetry_equiv_pos_as_xyz
  1  'x, y, z'
loop_
 _atom_site_type_symbol
 _atom_site_label
 _atom_site_symmetry_multiplicity
 _atom_site_fract_x
 _atom_site_fract_y
 _atom_site_fract_z
 _atom_site_occupancy
  U  U1  1  0.500000  0.500000  0.000000  1.0
  Ni  Ni2  1  0.250000  0.750000  0.500000  1.0
  Ni  Ni3  1  0.750000  0.250000  0.500000  1.0
  B  B4  1  0.142945  0.142945  0.285891  1.0
  B  B5  1  0.857055  0.857055  0.714109  1.0
  C  C6  1  0.000000  0.000000  0.000000  1.0
