# generated using pymatgen
data_Tl3VSe4
_symmetry_space_group_name_H-M   'P 1'
_cell_length_a   6.85580552
_cell_length_b   6.85580552
_cell_length_c   6.85580552
_cell_angle_alpha   109.47122063
_cell_angle_beta   109.47122063
_cell_angle_gamma   109.47122063
_symmetry_Int_Tables_number   1
_chemical_formula_structural   Tl3VSe4
_chemical_formula_sum   'Tl3 V1 Se4'
_cell_volume   248.05819398
_cell_formula_units_Z   1
loop_
 _symmetry_equiv_pos_site_id
 _symmetry_equiv_pos_as_xyz
  1  'x, y, z'
loop_
 _atom_site_type_symbol
 _atom_site_label
 _atom_site_symmetry_multiplicity
 _atom_site_fract_x
 _atom_site_fract_y
 _atom_site_fract_z
 _atom_site_occupancy
  Tl  Tl1  1  0.000000  0.500000  0.500000  1.0
  Tl  Tl2  1  0.500000  0.000000  0.500000  1.0
  Tl  Tl3  1  0.500000  0.500000  0.000000  1.0
  V  V4  1  0.000000  0.000000  0.000000  1.0
  Se  Se5  1  0.334840  0.000000  0.000000  1.0
  Se  Se6  1  0.000000  0.334840  0.000000  1.0
  Se  Se7  1  0.000000  0.000000  0.334840  1.0
  Se  Se8  1  0.665160  0.665160  0.665160  1.0
