# generated using pymatgen
data_Li3Ag
_symmetry_space_group_name_H-M   'P 1'
_cell_length_a   5.81477550
_cell_length_b   5.81477547
_cell_length_c   4.70364388
_cell_angle_alpha   90.00000000
_cell_angle_beta   90.00000000
_cell_angle_gamma   120.00000671
_symmetry_Int_Tables_number   1
_chemical_formula_structural   Li3Ag
_chemical_formula_sum   'Li6 Ag2'
_cell_volume   137.73075784
_cell_formula_units_Z   2
loop_
 _symmetry_equiv_pos_site_id
 _symmetry_equiv_pos_as_xyz
  1  'x, y, z'
loop_
 _atom_site_type_symbol
 _atom_site_label
 _atom_site_symmetry_multiplicity
 _atom_site_fract_x
 _atom_site_fract_y
 _atom_site_fract_z
 _atom_site_occupancy
  Li  Li1  1  0.170790  0.341579  0.249999  1.0
  Li  Li2  1  0.658422  0.829211  0.249999  1.0
  Li  Li3  1  0.170789  0.829211  0.249999  1.0
  Li  Li4  1  0.829211  0.658422  0.749999  1.0
  Li  Li5  1  0.341580  0.170789  0.749999  1.0
  Li  Li6  1  0.829211  0.170789  0.749999  1.0
  Ag  Ag7  1  0.333333  0.666667  0.749999  1.0
  Ag  Ag8  1  0.666667  0.333333  0.249999  1.0
