# generated using pymatgen
data_BaMoO4
_symmetry_space_group_name_H-M   'P 1'
_cell_length_a   5.70338191
_cell_length_b   5.70338191
_cell_length_c   7.68269256
_cell_angle_alpha   111.78864336
_cell_angle_beta   111.78864328
_cell_angle_gamma   90.00000000
_symmetry_Int_Tables_number   1
_chemical_formula_structural   BaMoO4
_chemical_formula_sum   'Ba2 Mo2 O8'
_cell_volume   212.70667908
_cell_formula_units_Z   2
loop_
 _symmetry_equiv_pos_site_id
 _symmetry_equiv_pos_as_xyz
  1  'x, y, z'
loop_
 _atom_site_type_symbol
 _atom_site_label
 _atom_site_symmetry_multiplicity
 _atom_site_fract_x
 _atom_site_fract_y
 _atom_site_fract_z
 _atom_site_occupancy
  Ba  Ba1  1  0.125000  0.375000  0.250000  1.0
  Ba  Ba2  1  0.875000  0.625000  0.750000  1.0
  Mo  Mo3  1  0.625000  0.875000  0.250000  1.0
  Mo  Mo4  1  0.375000  0.125000  0.750000  1.0
  O  O5  1  0.782648  0.918647  0.096830  1.0
  O  O6  1  0.314182  0.678183  0.096830  1.0
  O  O7  1  0.418647  0.814182  0.596830  1.0
  O  O8  1  0.178183  0.282648  0.596830  1.0
  O  O9  1  0.217352  0.081353  0.903170  1.0
  O  O10  1  0.685818  0.321817  0.903170  1.0
  O  O11  1  0.581353  0.185818  0.403170  1.0
  O  O12  1  0.821817  0.717352  0.403170  1.0
