# generated using pymatgen
data_CaC4
_symmetry_space_group_name_H-M   'P 1'
_cell_length_a   5.31577049
_cell_length_b   5.31576964
_cell_length_c   5.31577045
_cell_angle_alpha   83.73925382
_cell_angle_beta   123.67811565
_cell_angle_gamma   123.67812285
_symmetry_Int_Tables_number   1
_chemical_formula_structural   CaC4
_chemical_formula_sum   'Ca2 C8'
_cell_volume   99.65784922
_cell_formula_units_Z   2
loop_
 _symmetry_equiv_pos_site_id
 _symmetry_equiv_pos_as_xyz
  1  'x, y, z'
loop_
 _atom_site_type_symbol
 _atom_site_label
 _atom_site_symmetry_multiplicity
 _atom_site_fract_x
 _atom_site_fract_y
 _atom_site_fract_z
 _atom_site_occupancy
  Ca  Ca1  1  0.000000  0.750000  0.750000  1.0
  Ca  Ca2  1  0.000000  0.250000  0.250000  1.0
  C  C3  1  0.202290  0.351146  0.851146  1.0
  C  C4  1  0.500000  0.851146  0.648854  1.0
  C  C5  1  0.500000  0.148854  0.351146  1.0
  C  C6  1  0.797710  0.648854  0.148854  1.0
  C  C7  1  0.500000  0.648837  0.851163  1.0
  C  C8  1  0.797673  0.148837  0.648837  1.0
  C  C9  1  0.500000  0.351163  0.148837  1.0
  C  C10  1  0.202327  0.851163  0.351163  1.0
