# generated using pymatgen
data_NiO
_symmetry_space_group_name_H-M   'P 1'
_cell_length_a   2.97526451
_cell_length_b   5.14219620
_cell_length_c   2.97526401
_cell_angle_alpha   106.81598496
_cell_angle_beta   120.00000473
_cell_angle_gamma   73.18400973
_symmetry_Int_Tables_number   1
_chemical_formula_structural   NiO
_chemical_formula_sum   'Ni2 O2'
_cell_volume   37.15665600
_cell_formula_units_Z   2
loop_
 _symmetry_equiv_pos_site_id
 _symmetry_equiv_pos_as_xyz
  1  'x, y, z'
loop_
 _atom_site_type_symbol
 _atom_site_label
 _atom_site_symmetry_multiplicity
 _atom_site_fract_x
 _atom_site_fract_y
 _atom_site_fract_z
 _atom_site_occupancy
  Ni  Ni1  1  0.000000  0.000000  0.000000  1.0
  Ni  Ni2  1  0.500000  0.500000  0.500000  1.0
  O  O3  1  0.249998  0.250006  0.750002  1.0
  O  O4  1  0.750002  0.749994  0.249998  1.0
