# generated using pymatgen
data_Sr(AlH)2
_symmetry_space_group_name_H-M   'P 1'
_cell_length_a   4.53872979
_cell_length_b   4.54023717
_cell_length_c   4.70887638
_cell_angle_alpha   90.00000003
_cell_angle_beta   90.00433467
_cell_angle_gamma   120.01098388
_symmetry_Int_Tables_number   1
_chemical_formula_structural   Sr(AlH)2
_chemical_formula_sum   'Sr1 Al2 H2'
_cell_volume   84.02581016
_cell_formula_units_Z   1
loop_
 _symmetry_equiv_pos_site_id
 _symmetry_equiv_pos_as_xyz
  1  'x, y, z'
loop_
 _atom_site_type_symbol
 _atom_site_label
 _atom_site_symmetry_multiplicity
 _atom_site_fract_x
 _atom_site_fract_y
 _atom_site_fract_z
 _atom_site_occupancy
  Sr  Sr1  1  0.000000  0.000000  0.000000  1.0
  Al  Al2  1  0.666511  0.333256  0.539334  1.0
  Al  Al3  1  0.333489  0.666744  0.460666  1.0
  H  H4  1  0.666607  0.333304  0.902988  1.0
  H  H5  1  0.333393  0.666696  0.097012  1.0
