# generated using pymatgen
data_LiLuO2
_symmetry_space_group_name_H-M   'P 1'
_cell_length_a   3.27383580
_cell_length_b   5.37577807
_cell_length_c   3.27383487
_cell_angle_alpha   107.72800681
_cell_angle_beta   60.00000066
_cell_angle_gamma   107.72800665
_symmetry_Int_Tables_number   1
_chemical_formula_structural   LiLuO2
_chemical_formula_sum   'Li1 Lu1 O2'
_cell_volume   46.71220696
_cell_formula_units_Z   1
loop_
 _symmetry_equiv_pos_site_id
 _symmetry_equiv_pos_as_xyz
  1  'x, y, z'
loop_
 _atom_site_type_symbol
 _atom_site_label
 _atom_site_symmetry_multiplicity
 _atom_site_fract_x
 _atom_site_fract_y
 _atom_site_fract_z
 _atom_site_occupancy
  Li  Li1  1  0.000000  0.000000  0.000000  1.0
  Lu  Lu2  1  0.500000  0.500000  0.500000  1.0
  O  O3  1  0.243887  0.731662  0.243887  1.0
  O  O4  1  0.756113  0.268338  0.756113  1.0
