# generated using pymatgen
data_Pt3W
_symmetry_space_group_name_H-M   'P 1'
_cell_length_a   4.89974075
_cell_length_b   4.89974075
_cell_length_c   4.89974075
_cell_angle_alpha   132.72785002
_cell_angle_beta   132.72785002
_cell_angle_gamma   69.08186780
_symmetry_Int_Tables_number   1
_chemical_formula_structural   Pt3W
_chemical_formula_sum   'Pt3 W1'
_cell_volume   62.29997502
_cell_formula_units_Z   1
loop_
 _symmetry_equiv_pos_site_id
 _symmetry_equiv_pos_as_xyz
  1  'x, y, z'
loop_
 _atom_site_type_symbol
 _atom_site_label
 _atom_site_symmetry_multiplicity
 _atom_site_fract_x
 _atom_site_fract_y
 _atom_site_fract_z
 _atom_site_occupancy
  Pt  Pt1  1  0.750001  0.250000  0.500001  1.0
  Pt  Pt2  1  0.250000  0.750001  0.500001  1.0
  Pt  Pt3  1  0.500001  0.500001  0.000000  1.0
  W  W4  1  0.000000  0.000000  0.000000  1.0
