# generated using pymatgen
data_Co3H
_symmetry_space_group_name_H-M   'P 1'
_cell_length_a   2.54547139
_cell_length_b   2.54547139
_cell_length_c   12.28570170
_cell_angle_alpha   90.00000000
_cell_angle_beta   90.00000000
_cell_angle_gamma   120.00000224
_symmetry_Int_Tables_number   1
_chemical_formula_structural   Co3H
_chemical_formula_sum   'Co6 H2'
_cell_volume   68.93932526
_cell_formula_units_Z   2
loop_
 _symmetry_equiv_pos_site_id
 _symmetry_equiv_pos_as_xyz
  1  'x, y, z'
loop_
 _atom_site_type_symbol
 _atom_site_label
 _atom_site_symmetry_multiplicity
 _atom_site_fract_x
 _atom_site_fract_y
 _atom_site_fract_z
 _atom_site_occupancy
  Co  Co1  1  0.666667  0.333333  0.911102  1.0
  Co  Co2  1  0.333333  0.666667  0.411102  1.0
  Co  Co3  1  0.666667  0.333333  0.589324  1.0
  Co  Co4  1  0.333333  0.666667  0.089324  1.0
  Co  Co5  1  0.666667  0.333333  0.250175  1.0
  Co  Co6  1  0.333333  0.666667  0.750175  1.0
  H  H7  1  0.000000  0.000000  0.000059  1.0
  H  H8  1  0.000000  0.000000  0.500059  1.0
