# generated using pymatgen
data_Li3Co
_symmetry_space_group_name_H-M   'P 1'
_cell_length_a   5.29508247
_cell_length_b   5.29508196
_cell_length_c   4.42759933
_cell_angle_alpha   90.00000000
_cell_angle_beta   90.00000000
_cell_angle_gamma   119.99998980
_symmetry_Int_Tables_number   1
_chemical_formula_structural   Li3Co
_chemical_formula_sum   'Li6 Co2'
_cell_volume   107.50889663
_cell_formula_units_Z   2
loop_
 _symmetry_equiv_pos_site_id
 _symmetry_equiv_pos_as_xyz
  1  'x, y, z'
loop_
 _atom_site_type_symbol
 _atom_site_label
 _atom_site_symmetry_multiplicity
 _atom_site_fract_x
 _atom_site_fract_y
 _atom_site_fract_z
 _atom_site_occupancy
  Li  Li1  1  0.173784  0.347568  0.249998  1.0
  Li  Li2  1  0.652434  0.826217  0.249998  1.0
  Li  Li3  1  0.173783  0.826217  0.249998  1.0
  Li  Li4  1  0.826216  0.652433  0.749999  1.0
  Li  Li5  1  0.347568  0.173784  0.749999  1.0
  Li  Li6  1  0.826216  0.173784  0.749999  1.0
  Co  Co7  1  0.333334  0.666668  0.749999  1.0
  Co  Co8  1  0.666667  0.333333  0.249998  1.0
