# generated using pymatgen
data_LiTiO2
_symmetry_space_group_name_H-M   'P 1'
_cell_length_a   2.90050806
_cell_length_b   2.90064927
_cell_length_c   10.25177516
_cell_angle_alpha   90.00333269
_cell_angle_beta   89.99834119
_cell_angle_gamma   120.00162483
_symmetry_Int_Tables_number   1
_chemical_formula_structural   LiTiO2
_chemical_formula_sum   'Li2 Ti2 O4'
_cell_volume   74.69506147
_cell_formula_units_Z   2
loop_
 _symmetry_equiv_pos_site_id
 _symmetry_equiv_pos_as_xyz
  1  'x, y, z'
loop_
 _atom_site_type_symbol
 _atom_site_label
 _atom_site_symmetry_multiplicity
 _atom_site_fract_x
 _atom_site_fract_y
 _atom_site_fract_z
 _atom_site_occupancy
  Li  Li1  1  0.333244  0.666798  0.240363  1.0
  Li  Li2  1  0.666756  0.333555  0.740363  1.0
  Ti  Ti3  1  0.333413  0.666633  0.499712  1.0
  Ti  Ti4  1  0.666587  0.333220  0.999712  1.0
  O  O5  1  0.333360  0.666687  0.883139  1.0
  O  O6  1  0.999846  0.999763  0.117846  1.0
  O  O7  1  0.000154  0.999917  0.617846  1.0
  O  O8  1  0.666640  0.333327  0.383139  1.0
