# generated using pymatgen
data_K2NaRhF6
_symmetry_space_group_name_H-M   'P 1'
_cell_length_a   6.02434182
_cell_length_b   6.02434204
_cell_length_c   6.02434202
_cell_angle_alpha   59.99999910
_cell_angle_beta   59.99999864
_cell_angle_gamma   59.99999877
_symmetry_Int_Tables_number   1
_chemical_formula_structural   K2NaRhF6
_chemical_formula_sum   'K2 Na1 Rh1 F6'
_cell_volume   154.60154796
_cell_formula_units_Z   1
loop_
 _symmetry_equiv_pos_site_id
 _symmetry_equiv_pos_as_xyz
  1  'x, y, z'
loop_
 _atom_site_type_symbol
 _atom_site_label
 _atom_site_symmetry_multiplicity
 _atom_site_fract_x
 _atom_site_fract_y
 _atom_site_fract_z
 _atom_site_occupancy
  K  K1  1  0.250000  0.250000  0.250000  1.0
  K  K2  1  0.750000  0.750000  0.750000  1.0
  Na  Na3  1  0.500000  0.500000  0.500000  1.0
  Rh  Rh4  1  0.000000  0.000000  0.000000  1.0
  F  F5  1  0.236133  0.763867  0.236133  1.0
  F  F6  1  0.763867  0.763867  0.236133  1.0
  F  F7  1  0.763867  0.236133  0.763867  1.0
  F  F8  1  0.763867  0.236133  0.236133  1.0
  F  F9  1  0.236133  0.763867  0.763867  1.0
  F  F10  1  0.236133  0.236133  0.763867  1.0
