# generated using pymatgen
data_TbB2Ir3
_symmetry_space_group_name_H-M   'P 1'
_cell_length_a   3.15954304
_cell_length_b   5.47612985
_cell_length_c   5.47364613
_cell_angle_alpha   59.98498859
_cell_angle_beta   90.13497572
_cell_angle_gamma   90.26981898
_symmetry_Int_Tables_number   1
_chemical_formula_structural   TbB2Ir3
_chemical_formula_sum   'Tb1 B2 Ir3'
_cell_volume   82.00396148
_cell_formula_units_Z   1
loop_
 _symmetry_equiv_pos_site_id
 _symmetry_equiv_pos_as_xyz
  1  'x, y, z'
loop_
 _atom_site_type_symbol
 _atom_site_label
 _atom_site_symmetry_multiplicity
 _atom_site_fract_x
 _atom_site_fract_y
 _atom_site_fract_z
 _atom_site_occupancy
  Tb  Tb1  1  0.500000  0.500000  0.000000  1.0
  B  B2  1  0.500000  0.166759  0.666483  1.0
  B  B3  1  0.500000  0.833241  0.333517  1.0
  Ir  Ir4  1  0.000000  0.000000  0.500000  1.0
  Ir  Ir5  1  0.000000  0.500000  0.500000  1.0
  Ir  Ir6  1  0.000000  0.000000  0.000000  1.0
