# generated using pymatgen
data_P2O5
_symmetry_space_group_name_H-M   'P 1'
_cell_length_a   3.09274814
_cell_length_b   5.92038255
_cell_length_c   3.26898950
_cell_angle_alpha   90.00000000
_cell_angle_beta   90.00000000
_cell_angle_gamma   90.11854515
_symmetry_Int_Tables_number   1
_chemical_formula_structural   P2O5
_chemical_formula_sum   'P2 O5'
_cell_volume   59.85589381
_cell_formula_units_Z   1
loop_
 _symmetry_equiv_pos_site_id
 _symmetry_equiv_pos_as_xyz
  1  'x, y, z'
loop_
 _atom_site_type_symbol
 _atom_site_label
 _atom_site_symmetry_multiplicity
 _atom_site_fract_x
 _atom_site_fract_y
 _atom_site_fract_z
 _atom_site_occupancy
  P  P1  1  0.000000  0.000000  0.000000  1.0
  P  P2  1  0.500000  0.500000  0.000000  1.0
  O  O3  1  0.000822  0.310623  0.000000  1.0
  O  O4  1  0.000000  0.000000  0.500000  1.0
  O  O5  1  0.999178  0.689377  0.000000  1.0
  O  O6  1  0.500000  0.500000  0.500000  1.0
  O  O7  1  0.500000  0.000000  0.000000  1.0
