# generated using pymatgen
data_BaC10
_symmetry_space_group_name_H-M   'P 1'
_cell_length_a   9.79314811
_cell_length_b   9.79314811
_cell_length_c   9.79314811
_cell_angle_alpha   109.47122062
_cell_angle_beta   109.47122062
_cell_angle_gamma   109.47122064
_symmetry_Int_Tables_number   1
_chemical_formula_structural   BaC10
_chemical_formula_sum   'Ba6 C60'
_cell_volume   723.011287455
_cell_formula_units_Z   6
loop_
 _symmetry_equiv_pos_site_id
 _symmetry_equiv_pos_as_xyz
  1  'x, y, z'
loop_
 _atom_site_type_symbol
 _atom_site_label
 _atom_site_symmetry_multiplicity
 _atom_site_fract_x
 _atom_site_fract_y
 _atom_site_fract_z
 _atom_site_occupancy
  C  C1  1  0.311323  0.375585  0.064262  1
  C  C2  1  0.247061  0.935738  0.311323  1
  C  C3  1  0.935738  0.688677  0.624415  1
  C  C4  1  0.752939  0.064262  0.688677  1
  C  C5  1  0.935738  0.311323  0.247061  1
  C  C6  1  0.624415  0.935738  0.688677  1
  C  C7  1  0.064262  0.688677  0.752939  1
  C  C8  1  0.064262  0.311323  0.375585  1
  C  C9  1  0.375585  0.064262  0.311323  1
  C  C10  1  0.311323  0.247061  0.935738  1
  C  C11  1  0.688677  0.624415  0.935738  1
  C  C12  1  0.688677  0.752939  0.064262  1
  C  C13  1  0.375591  0.399840  0.231892  1
  C  C14  1  0.143699  0.768108  0.167948  1
  C  C15  1  0.975751  0.832052  0.600160  1
  C  C16  1  0.856301  0.024249  0.624409  1
  C  C17  1  0.768108  0.167948  0.143699  1
  C  C18  1  0.600160  0.975751  0.832052  1
  C  C19  1  0.024249  0.624409  0.856301  1
  C  C20  1  0.231892  0.375591  0.399840  1
  C  C21  1  0.399840  0.231892  0.375591  1
  C  C22  1  0.167948  0.143699  0.768108  1
  C  C23  1  0.832052  0.600160  0.975751  1
  C  C24  1  0.624409  0.856301  0.024249  1
  C  C25  1  0.624409  0.600160  0.768108  1
  C  C26  1  0.856301  0.231892  0.832052  1
  C  C27  1  0.024249  0.167948  0.399840  1
  C  C28  1  0.143699  0.975751  0.375591  1
  C  C29  1  0.231892  0.832052  0.856301  1
  C  C30  1  0.399840  0.024249  0.167948  1
  C  C31  1  0.975751  0.375591  0.143699  1
  C  C32  1  0.768108  0.624409  0.600160  1
  C  C33  1  0.600160  0.768108  0.624409  1
  C  C34  1  0.832052  0.856301  0.231892  1
  C  C35  1  0.167948  0.399840  0.024249  1
  C  C36  1  0.375591  0.143699  0.975751  1
  C  C37  1  0.436769  0.293862  0.270193  1
  C  C38  1  0.166576  0.729807  0.023669  1
  C  C39  1  0.142907  0.976331  0.706138  1
  C  C40  1  0.833424  0.857093  0.563231  1
  C  C41  1  0.729807  0.023669  0.166576  1
  C  C42  1  0.706138  0.142907  0.976331  1
  C  C43  1  0.857093  0.563231  0.833424  1
  C  C44  1  0.270193  0.436769  0.293862  1
  C  C45  1  0.293862  0.270193  0.436769  1
  C  C46  1  0.023669  0.166576  0.729807  1
  C  C47  1  0.976331  0.706138  0.142907  1
  C  C48  1  0.563231  0.833424  0.857093  1
  C  C49  1  0.563231  0.706138  0.729807  1
  C  C50  1  0.833424  0.270193  0.976331  1
  C  C51  1  0.857093  0.023669  0.293862  1
  C  C52  1  0.166576  0.142907  0.436769  1
  C  C53  1  0.270193  0.976331  0.833424  1
  C  C54  1  0.293862  0.857093  0.023669  1
  C  C55  1  0.142907  0.436769  0.166576  1
  C  C56  1  0.729807  0.563231  0.706138  1
  C  C57  1  0.706138  0.729807  0.563231  1
  C  C58  1  0.976331  0.833424  0.270193  1
  C  C59  1  0.023669  0.293862  0.857093  1
  C  C60  1  0.436769  0.166576  0.142907  1
  Ba  Ba61  1  0.777549  0.277549  0.500000  1
  Ba  Ba62  1  0.277549  0.500000  0.777549  1
  Ba  Ba63  1  0.500000  0.222451  0.722451  1
  Ba  Ba64  1  0.722451  0.500000  0.222451  1
  Ba  Ba65  1  0.500000  0.777549  0.277549  1
  Ba  Ba66  1  0.222451  0.722451  0.500000  1
