# generated using pymatgen
data_Mo3S3Br
_symmetry_space_group_name_H-M   'P 1'
_cell_length_a   6.56415860
_cell_length_b   6.56415806
_cell_length_c   6.56415850
_cell_angle_alpha   94.20850997
_cell_angle_beta   94.20850957
_cell_angle_gamma   94.20850514
_symmetry_Int_Tables_number   1
_chemical_formula_structural   Mo3S3Br
_chemical_formula_sum   'Mo6 S6 Br2'
_cell_volume   280.430728569
_cell_formula_units_Z   2
loop_
 _symmetry_equiv_pos_site_id
 _symmetry_equiv_pos_as_xyz
  1  'x, y, z'
loop_
 _atom_site_type_symbol
 _atom_site_label
 _atom_site_symmetry_multiplicity
 _atom_site_fract_x
 _atom_site_fract_y
 _atom_site_fract_z
 _atom_site_occupancy
  Mo  Mo1  1  0.408263  0.549362  0.220375  1
  Mo  Mo2  1  0.220375  0.408263  0.549362  1
  Mo  Mo3  1  0.549362  0.220375  0.408263  1
  Mo  Mo4  1  0.591737  0.450638  0.779625  1
  Mo  Mo5  1  0.779625  0.591737  0.450638  1
  Mo  Mo6  1  0.450638  0.779625  0.591737  1
  S  S7  1  0.134475  0.717440  0.377357  1
  S  S8  1  0.377357  0.134475  0.717440  1
  S  S9  1  0.717440  0.377357  0.134475  1
  S  S10  1  0.865525  0.282560  0.622643  1
  S  S11  1  0.622643  0.865525  0.282560  1
  S  S12  1  0.282560  0.622643  0.865525  1
  Br  Br13  1  0.190677  0.190677  0.190677  1
  Br  Br14  1  0.809323  0.809323  0.809323  1
