# generated using pymatgen
data_Nb2InC
_symmetry_space_group_name_H-M   'P 1'
_cell_length_a   3.19833794
_cell_length_b   3.19833794
_cell_length_c   14.52311618
_cell_angle_alpha   90.00000000
_cell_angle_beta   90.00000000
_cell_angle_gamma   119.99999996
_symmetry_Int_Tables_number   1
_chemical_formula_structural   Nb2InC
_chemical_formula_sum   'Nb4 In2 C2'
_cell_volume   128.658695501
_cell_formula_units_Z   2
loop_
 _symmetry_equiv_pos_site_id
 _symmetry_equiv_pos_as_xyz
  1  'x, y, z'
loop_
 _atom_site_type_symbol
 _atom_site_label
 _atom_site_symmetry_multiplicity
 _atom_site_fract_x
 _atom_site_fract_y
 _atom_site_fract_z
 _atom_site_occupancy
  C  C1  1  0.000000  0.000000  0.000000  1
  C  C2  1  0.000000  0.000000  0.500000  1
  Nb  Nb3  1  0.333333  0.666667  0.082663  1
  Nb  Nb4  1  0.333333  0.666667  0.417337  1
  Nb  Nb5  1  0.666667  0.333333  0.582663  1
  Nb  Nb6  1  0.666667  0.333333  0.917337  1
  In  In7  1  0.333333  0.666667  0.750000  1
  In  In8  1  0.666667  0.333333  0.250000  1
